80
Dimer: struct; Energy: -4906.06228 eV
C       -1.29972200       1.48833600      -0.03228100
C       -0.45010500       2.63965400       0.01843500
C        0.99654200       2.45238200       0.05441800
C       -0.76903400       0.15867800      -0.04877100
C        0.67752200      -0.02870400      -0.01297900
C        1.52709100       1.12265000       0.03785500
C        2.93347700       0.94084900       0.07277000
C        3.48023700      -0.37253000       0.05696900
C        3.79427800       2.07240500       0.12351100
C        5.26507800       1.88272800       0.16006300
C        1.24802600      -1.29258500      -0.02698300
C        2.64560500      -1.46904700       0.00777700
C        1.86805800       3.52983300       0.10418700
C        3.26457400       3.34539700       0.13880400
C        4.95087500      -0.56291500       0.09346700
N        5.75909100       0.57580800       0.14293500
O        6.06925500       2.83065500       0.20492200
O        5.48910000      -1.68427500       0.08194900
C       -1.02041300       3.90352800       0.03216900
C       -2.41794600       4.08003500      -0.00262400
C       -2.70602800       1.67000700      -0.06716000
C       -3.25245200       2.98347100      -0.05156500
C       -3.56691500       0.53850500      -0.11766500
C       -3.03687800      -0.73433100      -0.13279200
C       -1.64041100      -0.91883000      -0.09829200
C       -4.72314700       3.17392200      -0.08803700
C       -5.03773600       0.72818300      -0.15412500
N       -5.53143900       2.03522700      -0.13722100
O       -5.26133100       4.29529300      -0.07673500
O       -5.84203300      -0.21964700      -0.19870900
H        0.62972700      -2.20233100      -0.06573200
H        3.07286500      -2.48716200      -0.00439800
H        1.49989900       4.56697900       0.11841200
H        3.93550500       4.22152900       0.17822500
H        6.75033500       0.44779700       0.16755800
H       -0.40199700       4.81321100       0.07071000
H       -2.84532000       5.09816700       0.00933800
H       -3.70773700      -1.61056600      -0.17200800
H       -1.27202900      -1.95588300      -0.11238600
H       -6.52266300       2.16338500      -0.16179200
C        0.96558674      11.64563174       5.03382018
C        0.71416721      10.23840746       4.95343156
C        1.59646407       9.40558133       4.14281081
C        2.05869942      12.25795912       4.34096238
C        2.94112423      11.42525271       3.53050336
C        2.68958767      10.01804796       3.45005604
C        3.54721428       9.20820291       2.66213482
C        4.63900992       9.79789757       1.96614412
C        3.31368675       7.80789123       2.56959255
C        4.21030257       6.96062947       1.74570322
C        4.01533975      11.96300798       2.83772172
C        4.86505326      11.15517272       2.05608030
C        1.40163895       8.03747432       4.02772770
C        2.25561023       7.23616393       3.24407814
C        5.53599103       8.95125592       1.14214321
N        5.27015731       7.58095830       1.07915826
O        4.05875259       5.73191599       1.62497894
O        6.50608333       9.40689939       0.51081364
C       -0.35977832       9.70049442       5.64632975
C       -1.20947412      10.50826205       6.42798969
C        0.10806031      12.45552205       5.82162953
C       -0.98348117      11.86551551       6.51764645
C        0.34136999      13.85587923       5.91404343
C        1.39943824      14.42728744       5.23931107
C        2.25348898      13.62604264       4.45575869
C       -1.88054811      12.71215028       7.34167682
C       -0.55531195      14.70316493       6.73786982
N       -1.61493945      14.08251117       7.40448132
O       -2.85049769      12.25644642       7.97316274
O       -0.40404696      15.93191985       6.85846568
H        4.24226112      13.03940860       2.87379555
H        5.71322722      11.61000406       1.51479767
H        0.57325700       7.52919192       4.54430061
H        2.07714627       6.14897065       3.17011133
H        5.87454349       7.01007625       0.52384861
H       -0.58647595       8.62403723       5.61034344
H       -2.05759553      10.05347062       6.96950535
H        1.57788266      15.51453101       5.31304356
H        3.08186059      14.13412201       3.93900082
H       -2.21943288      14.65327832       7.95978823
