80
Dimer: struct; Energy: -4906.06228 eV
C       -1.29972200       1.48833600      -0.03228100
C       -0.45010500       2.63965400       0.01843500
C        0.99654200       2.45238200       0.05441800
C       -0.76903400       0.15867800      -0.04877100
C        0.67752200      -0.02870400      -0.01297900
C        1.52709100       1.12265000       0.03785500
C        2.93347700       0.94084900       0.07277000
C        3.48023700      -0.37253000       0.05696900
C        3.79427800       2.07240500       0.12351100
C        5.26507800       1.88272800       0.16006300
C        1.24802600      -1.29258500      -0.02698300
C        2.64560500      -1.46904700       0.00777700
C        1.86805800       3.52983300       0.10418700
C        3.26457400       3.34539700       0.13880400
C        4.95087500      -0.56291500       0.09346700
N        5.75909100       0.57580800       0.14293500
O        6.06925500       2.83065500       0.20492200
O        5.48910000      -1.68427500       0.08194900
C       -1.02041300       3.90352800       0.03216900
C       -2.41794600       4.08003500      -0.00262400
C       -2.70602800       1.67000700      -0.06716000
C       -3.25245200       2.98347100      -0.05156500
C       -3.56691500       0.53850500      -0.11766500
C       -3.03687800      -0.73433100      -0.13279200
C       -1.64041100      -0.91883000      -0.09829200
C       -4.72314700       3.17392200      -0.08803700
C       -5.03773600       0.72818300      -0.15412500
N       -5.53143900       2.03522700      -0.13722100
O       -5.26133100       4.29529300      -0.07673500
O       -5.84203300      -0.21964700      -0.19870900
H        0.62972700      -2.20233100      -0.06573200
H        3.07286500      -2.48716200      -0.00439800
H        1.49989900       4.56697900       0.11841200
H        3.93550500       4.22152900       0.17822500
H        6.75033500       0.44779700       0.16755800
H       -0.40199700       4.81321100       0.07071000
H       -2.84532000       5.09816700       0.00933800
H       -3.70773700      -1.61056600      -0.17200800
H       -1.27202900      -1.95588300      -0.11238600
H       -6.52266300       2.16338500      -0.16179200
C        4.02611752       3.03646021       5.07341477
C        3.18303580       2.49664556       4.04980955
C        2.92547779       1.06056961       4.02738500
C        4.62317459       2.20615672       6.07541829
C        4.36555494       0.77017063       6.05320584
C        3.52255763       0.23039242       5.02950537
C        3.27196895      -1.16564309       5.00754155
C        3.85598447      -2.00746009       5.99467405
C        2.43707853      -1.72099558       3.99832720
C        2.17478665      -3.18086678       3.97497976
C        4.91648711      -0.08255879       6.99787107
C        4.66513654      -1.46883564       6.97270094
C        2.11759358       0.48189161       3.06023835
C        1.87093878      -0.90529389       3.04153810
C        3.59409570      -3.46734083       5.97193311
N        2.76839072      -3.97041010       4.96322955
O        1.45472156      -3.72597345       3.11961811
O        4.07492906      -4.25473514       6.80624514
C        2.63184443       3.34922754       3.10529413
C        2.88313136       4.73547647       3.13044423
C        4.27678622       4.43238180       5.09545080
C        3.69247126       5.27392989       4.10834245
C        5.11185297       4.98779319       6.10448780
C        5.67794331       4.17178513       7.06101909
C        5.43124644       2.78464928       7.04244462
C        3.95435830       6.73387729       4.13102146
C        5.37422155       6.44767046       6.12778061
N        4.78028897       7.23698209       5.13953790
O        3.47333952       7.52126854       3.29682806
O        6.09447814       6.99287305       6.98291083
H        5.56933951       0.29300590       7.80047173
H        5.11698988      -2.12468528       7.73751942
H        1.64054755       1.08550150       2.27315677
H        1.22340926      -1.33955555       2.25959690
H        2.59171182      -4.95433050       4.94764174
H        1.97883421       2.97356772       2.30285767
H        2.43113351       5.39147242       2.36575367
H        6.32567123       4.60592089       7.84290920
H        5.90828132       2.18082834       7.82935050
H        4.95691961       8.22091120       5.15497635
