80
Dimer: struct; Energy: -4906.06228 eV
C       -1.29972200       1.48833600      -0.03228100
C       -0.45010500       2.63965400       0.01843500
C        0.99654200       2.45238200       0.05441800
C       -0.76903400       0.15867800      -0.04877100
C        0.67752200      -0.02870400      -0.01297900
C        1.52709100       1.12265000       0.03785500
C        2.93347700       0.94084900       0.07277000
C        3.48023700      -0.37253000       0.05696900
C        3.79427800       2.07240500       0.12351100
C        5.26507800       1.88272800       0.16006300
C        1.24802600      -1.29258500      -0.02698300
C        2.64560500      -1.46904700       0.00777700
C        1.86805800       3.52983300       0.10418700
C        3.26457400       3.34539700       0.13880400
C        4.95087500      -0.56291500       0.09346700
N        5.75909100       0.57580800       0.14293500
O        6.06925500       2.83065500       0.20492200
O        5.48910000      -1.68427500       0.08194900
C       -1.02041300       3.90352800       0.03216900
C       -2.41794600       4.08003500      -0.00262400
C       -2.70602800       1.67000700      -0.06716000
C       -3.25245200       2.98347100      -0.05156500
C       -3.56691500       0.53850500      -0.11766500
C       -3.03687800      -0.73433100      -0.13279200
C       -1.64041100      -0.91883000      -0.09829200
C       -4.72314700       3.17392200      -0.08803700
C       -5.03773600       0.72818300      -0.15412500
N       -5.53143900       2.03522700      -0.13722100
O       -5.26133100       4.29529300      -0.07673500
O       -5.84203300      -0.21964700      -0.19870900
H        0.62972700      -2.20233100      -0.06573200
H        3.07286500      -2.48716200      -0.00439800
H        1.49989900       4.56697900       0.11841200
H        3.93550500       4.22152900       0.17822500
H        6.75033500       0.44779700       0.16755800
H       -0.40199700       4.81321100       0.07071000
H       -2.84532000       5.09816700       0.00933800
H       -3.70773700      -1.61056600      -0.17200800
H       -1.27202900      -1.95588300      -0.11238600
H       -6.52266300       2.16338500      -0.16179200
C        8.02000544       5.35726311      -1.09060061
C        9.33554769       4.83494242      -1.30620205
C       10.40178657       5.19285358      -0.37658526
C        7.72196345       6.22079140       0.01184301
C        8.78802059       6.57860461       0.94157911
C       10.10357441       6.05634792       0.72586238
C       11.14026208       6.40409060       1.62949171
C       10.86406327       7.26082143       2.73125714
C       12.45408380       5.89531187       1.43203619
C       13.53850625       6.25874126       2.37676529
C        8.55804720       7.41065706       2.02687496
C        9.59052965       7.75375517       2.92232893
C       11.69469326       4.71734100      -0.53532345
C       12.72197809       5.06494501       0.36430384
C       11.94795940       7.62460825       3.67634073
N       13.22322727       7.10263154       3.44486194
O       14.70623031       5.84686008       2.25821999
O       11.76981467       8.36836475       4.65733909
C        9.56560433       4.00271130      -2.39122861
C        8.53317448       3.65956719      -3.28666396
C        6.98332088       5.00963866      -1.99412694
C        7.25978130       4.15274539      -3.09563211
C        5.66952059       5.51855769      -1.79688558
C        5.40202016       6.34901165      -0.72914532
C        6.42920142       6.69655404       0.17055638
C        6.17588193       3.78893090      -4.04080234
C        4.58510568       5.15519689      -2.74167906
N        4.90064186       4.31110275      -3.80954348
O        6.35400953       3.04500412      -5.02166225
O        3.41740915       5.56721815      -2.62341492
H        7.56134768       7.83239798       2.22726855
H        9.37917959       8.41845392       3.77834541
H       11.96417372       4.05173234      -1.36944612
H       13.74282001       4.67178384       0.21391847
H       13.95397325       7.34766247       4.08167270
H       10.56230963       3.58086215      -2.59140045
H        8.74438733       2.99467362      -4.14263714
H        4.38123327       6.74240656      -0.57877233
H        6.15998366       7.36224350       1.00468000
H        4.17000481       4.06602762      -4.44645862
