80
Dimer: struct; Energy: -4906.06228 eV
C       -1.29972200       1.48833600      -0.03228100
C       -0.45010500       2.63965400       0.01843500
C        0.99654200       2.45238200       0.05441800
C       -0.76903400       0.15867800      -0.04877100
C        0.67752200      -0.02870400      -0.01297900
C        1.52709100       1.12265000       0.03785500
C        2.93347700       0.94084900       0.07277000
C        3.48023700      -0.37253000       0.05696900
C        3.79427800       2.07240500       0.12351100
C        5.26507800       1.88272800       0.16006300
C        1.24802600      -1.29258500      -0.02698300
C        2.64560500      -1.46904700       0.00777700
C        1.86805800       3.52983300       0.10418700
C        3.26457400       3.34539700       0.13880400
C        4.95087500      -0.56291500       0.09346700
N        5.75909100       0.57580800       0.14293500
O        6.06925500       2.83065500       0.20492200
O        5.48910000      -1.68427500       0.08194900
C       -1.02041300       3.90352800       0.03216900
C       -2.41794600       4.08003500      -0.00262400
C       -2.70602800       1.67000700      -0.06716000
C       -3.25245200       2.98347100      -0.05156500
C       -3.56691500       0.53850500      -0.11766500
C       -3.03687800      -0.73433100      -0.13279200
C       -1.64041100      -0.91883000      -0.09829200
C       -4.72314700       3.17392200      -0.08803700
C       -5.03773600       0.72818300      -0.15412500
N       -5.53143900       2.03522700      -0.13722100
O       -5.26133100       4.29529300      -0.07673500
O       -5.84203300      -0.21964700      -0.19870900
H        0.62972700      -2.20233100      -0.06573200
H        3.07286500      -2.48716200      -0.00439800
H        1.49989900       4.56697900       0.11841200
H        3.93550500       4.22152900       0.17822500
H        6.75033500       0.44779700       0.16755800
H       -0.40199700       4.81321100       0.07071000
H       -2.84532000       5.09816700       0.00933800
H       -3.70773700      -1.61056600      -0.17200800
H       -1.27202900      -1.95588300      -0.11238600
H       -6.52266300       2.16338500      -0.16179200
C       10.64547991       4.74643549       3.65918117
C       11.31319752       3.99027180       4.67521462
C       11.87181333       4.68942789       5.82772590
C       10.51075149       6.16936309       3.74295083
C       11.06913508       6.86856945       4.89544186
C       11.73694691       6.11236674       5.91139090
C       12.28002168       6.79181804       7.03193004
C       12.15631828       8.20551549       7.13350541
C       12.94728219       6.05801867       8.05186823
C       13.51537585       6.76817537       9.22383799
C       10.96873321       8.24510770       5.03008218
C       11.50950746       8.91641498       6.14474981
C       12.52901376       4.00957396       6.84202565
C       13.06725838       4.68787850       7.95363151
C       12.72412403       8.91626497       8.30516512
N       13.37119941       8.15672143       9.28329461
O       14.10935470       6.18365876      10.14731405
O       12.64854947      10.14923257       8.45126937
C       11.41343670       2.61378402       4.54086127
C       10.87266270       1.94244834       3.42626015
C       10.10243635       4.06713718       2.53865676
C       10.22611199       2.65346173       2.43748302
C        9.43536376       4.80087881       1.51855316
C        9.31570504       6.17101088       1.61703873
C        9.85381118       6.84934459       2.72863910
C        9.65832302       1.94263305       1.26578175
C        8.86734334       4.09072272       0.34652389
N        9.01147548       2.70215133       0.28746607
O        9.73372567       0.70964866       1.11981395
O        8.27358409       4.67513330      -0.57715210
H       10.46331468       8.86188198       4.27141590
H       11.41503417      10.01353621       6.22634209
H       12.65345293       2.91632917       6.81471347
H       13.58577611       4.12133229       8.74702578
H       13.75401127       8.63549506      10.07309754
H       11.91870212       1.99708979       5.29970381
H       10.96690679       0.84524913       3.34467377
H        8.79737142       6.73769889       0.82358272
H        9.72959928       7.94259655       2.75610566
H        8.62875405       2.22325373      -0.50230264
