80
Dimer: struct; Energy: -4906.06228 eV
C       -1.29972200       1.48833600      -0.03228100
C       -0.45010500       2.63965400       0.01843500
C        0.99654200       2.45238200       0.05441800
C       -0.76903400       0.15867800      -0.04877100
C        0.67752200      -0.02870400      -0.01297900
C        1.52709100       1.12265000       0.03785500
C        2.93347700       0.94084900       0.07277000
C        3.48023700      -0.37253000       0.05696900
C        3.79427800       2.07240500       0.12351100
C        5.26507800       1.88272800       0.16006300
C        1.24802600      -1.29258500      -0.02698300
C        2.64560500      -1.46904700       0.00777700
C        1.86805800       3.52983300       0.10418700
C        3.26457400       3.34539700       0.13880400
C        4.95087500      -0.56291500       0.09346700
N        5.75909100       0.57580800       0.14293500
O        6.06925500       2.83065500       0.20492200
O        5.48910000      -1.68427500       0.08194900
C       -1.02041300       3.90352800       0.03216900
C       -2.41794600       4.08003500      -0.00262400
C       -2.70602800       1.67000700      -0.06716000
C       -3.25245200       2.98347100      -0.05156500
C       -3.56691500       0.53850500      -0.11766500
C       -3.03687800      -0.73433100      -0.13279200
C       -1.64041100      -0.91883000      -0.09829200
C       -4.72314700       3.17392200      -0.08803700
C       -5.03773600       0.72818300      -0.15412500
N       -5.53143900       2.03522700      -0.13722100
O       -5.26133100       4.29529300      -0.07673500
O       -5.84203300      -0.21964700      -0.19870900
H        0.62972700      -2.20233100      -0.06573200
H        3.07286500      -2.48716200      -0.00439800
H        1.49989900       4.56697900       0.11841200
H        3.93550500       4.22152900       0.17822500
H        6.75033500       0.44779700       0.16755800
H       -0.40199700       4.81321100       0.07071000
H       -2.84532000       5.09816700       0.00933800
H       -3.70773700      -1.61056600      -0.17200800
H       -1.27202900      -1.95588300      -0.11238600
H       -6.52266300       2.16338500      -0.16179200
C        9.70760792       4.70337148       3.79153004
C       10.42951359       5.74961441       4.45045510
C       11.81604040       6.00165403       4.07207361
C       10.30858076       3.89792659       2.77173484
C       11.69496750       4.14997988       2.39316085
C       12.41686435       5.19616156       3.05220292
C       13.76476022       5.44141673       2.68448173
C       14.37974513       4.65193490       1.67320899
C       14.49878539       6.47645566       3.32781170
C       15.90839240       6.73324767       2.94358259
C       12.32884941       3.40208970       1.41238559
C       13.66798523       3.64882222       1.04987700
C       12.56419669       7.00101869       4.67577070
C       13.90293243       7.24174335       4.30792539
C       15.78923935       4.90820012       1.28848978
N       16.47284732       5.93431711       1.94584380
O       16.60213813       7.62242914       3.46832229
O       16.38206346       4.25317724       0.41283479
C        9.79572670       6.49772402       5.43099757
C        8.45661949       6.25105790       5.79350478
C        8.35980973       4.45802201       4.15917272
C        7.74506521       5.24778985       5.17029389
C        7.62577779       3.42285031       3.51606260
C        8.22198619       2.65766671       2.53610896
C        9.56064211       2.89840485       2.16814743
C        6.33552072       4.99154016       5.55508735
C        6.21618155       3.16599553       3.90036136
N        5.65193344       3.96524432       4.89796742
O        5.74266247       5.64671776       6.43058952
O        5.52240658       2.27667850       3.37590486
H       11.80870585       2.58960158       0.88253028
H       14.14795065       3.03775003       0.26535072
H       12.13890621       7.64141739       5.46344623
H       14.47548127       8.04432081       4.80528537
H       17.42286112       6.10725912       1.68676345
H       10.31591619       7.31032965       5.96064075
H        7.97647480       6.86224330       6.57791403
H        7.64958148       1.85490662       2.03880971
H        9.98617814       2.25805512       1.38058526
H        4.70194380       3.79238230       5.15718092
