80
Dimer: struct; Energy: -4906.06228 eV
C       -1.29972200       1.48833600      -0.03228100
C       -0.45010500       2.63965400       0.01843500
C        0.99654200       2.45238200       0.05441800
C       -0.76903400       0.15867800      -0.04877100
C        0.67752200      -0.02870400      -0.01297900
C        1.52709100       1.12265000       0.03785500
C        2.93347700       0.94084900       0.07277000
C        3.48023700      -0.37253000       0.05696900
C        3.79427800       2.07240500       0.12351100
C        5.26507800       1.88272800       0.16006300
C        1.24802600      -1.29258500      -0.02698300
C        2.64560500      -1.46904700       0.00777700
C        1.86805800       3.52983300       0.10418700
C        3.26457400       3.34539700       0.13880400
C        4.95087500      -0.56291500       0.09346700
N        5.75909100       0.57580800       0.14293500
O        6.06925500       2.83065500       0.20492200
O        5.48910000      -1.68427500       0.08194900
C       -1.02041300       3.90352800       0.03216900
C       -2.41794600       4.08003500      -0.00262400
C       -2.70602800       1.67000700      -0.06716000
C       -3.25245200       2.98347100      -0.05156500
C       -3.56691500       0.53850500      -0.11766500
C       -3.03687800      -0.73433100      -0.13279200
C       -1.64041100      -0.91883000      -0.09829200
C       -4.72314700       3.17392200      -0.08803700
C       -5.03773600       0.72818300      -0.15412500
N       -5.53143900       2.03522700      -0.13722100
O       -5.26133100       4.29529300      -0.07673500
O       -5.84203300      -0.21964700      -0.19870900
H        0.62972700      -2.20233100      -0.06573200
H        3.07286500      -2.48716200      -0.00439800
H        1.49989900       4.56697900       0.11841200
H        3.93550500       4.22152900       0.17822500
H        6.75033500       0.44779700       0.16755800
H       -0.40199700       4.81321100       0.07071000
H       -2.84532000       5.09816700       0.00933800
H       -3.70773700      -1.61056600      -0.17200800
H       -1.27202900      -1.95588300      -0.11238600
H       -6.52266300       2.16338500      -0.16179200
C        2.43034092       7.40412264       6.93536615
C        3.04654181       7.33578258       8.22593982
C        2.89896478       8.46134579       9.14271765
C        1.67342568       8.54616149       6.51977182
C        1.52563365       9.67164635       7.43648261
C        2.14195575       9.60330143       8.72700330
C        1.99856913      10.69735927       9.61844593
C        1.25012640      11.84122670       9.22403325
C        2.60357176      10.64838561      10.90512591
C        2.45389199      11.79230332      11.83765704
C        0.80404239      10.80357553       7.08847614
C        0.66386511      11.88833851       7.97685318
C        3.47349506       8.45119371      10.40475158
C        3.32896797       9.53985130      11.28759272
C        1.10002926      12.98542612      10.15603820
N        1.71061905      12.89534181      11.40959920
O        2.95826168      11.80970311      12.97457702
O        0.45886064      14.01225872       9.87005800
C        3.76789162       6.20387979       8.57417515
C        3.90806286       5.11910831       7.68586968
C        2.57368369       6.31021167       6.04389035
C        3.32198082       5.16644018       6.43866655
C        1.96891328       6.35919310       4.75710073
C        1.24372285       7.46793556       4.37491160
C        1.09906606       8.55654725       5.25771918
C        3.47213835       4.02217343       5.50665158
C        2.11867213       5.21529888       3.82452377
N        2.86180668       4.11230786       4.25295610
O        4.11312892       2.99527211       5.79274147
O        1.61459242       5.19787442       2.68748237
H        0.31541887      10.89481526       6.10646020
H        0.08356129      12.77744500       7.67354704
H        4.06259989       7.59262201      10.76143822
H        3.79728022       9.50505654      12.28698387
H        1.60963724      13.66638409      12.03797350
H        4.25629999       6.11267076       9.55630809
H        4.48820265       4.22982364       7.98917644
H        0.77552391       7.50292668       3.37544032
H        0.51010956       9.41527341       4.90120482
H        2.96291020       3.34121477       3.62466735
