80
Dimer: struct; Energy: -4906.06228 eV
C       -1.29972200       1.48833600      -0.03228100
C       -0.45010500       2.63965400       0.01843500
C        0.99654200       2.45238200       0.05441800
C       -0.76903400       0.15867800      -0.04877100
C        0.67752200      -0.02870400      -0.01297900
C        1.52709100       1.12265000       0.03785500
C        2.93347700       0.94084900       0.07277000
C        3.48023700      -0.37253000       0.05696900
C        3.79427800       2.07240500       0.12351100
C        5.26507800       1.88272800       0.16006300
C        1.24802600      -1.29258500      -0.02698300
C        2.64560500      -1.46904700       0.00777700
C        1.86805800       3.52983300       0.10418700
C        3.26457400       3.34539700       0.13880400
C        4.95087500      -0.56291500       0.09346700
N        5.75909100       0.57580800       0.14293500
O        6.06925500       2.83065500       0.20492200
O        5.48910000      -1.68427500       0.08194900
C       -1.02041300       3.90352800       0.03216900
C       -2.41794600       4.08003500      -0.00262400
C       -2.70602800       1.67000700      -0.06716000
C       -3.25245200       2.98347100      -0.05156500
C       -3.56691500       0.53850500      -0.11766500
C       -3.03687800      -0.73433100      -0.13279200
C       -1.64041100      -0.91883000      -0.09829200
C       -4.72314700       3.17392200      -0.08803700
C       -5.03773600       0.72818300      -0.15412500
N       -5.53143900       2.03522700      -0.13722100
O       -5.26133100       4.29529300      -0.07673500
O       -5.84203300      -0.21964700      -0.19870900
H        0.62972700      -2.20233100      -0.06573200
H        3.07286500      -2.48716200      -0.00439800
H        1.49989900       4.56697900       0.11841200
H        3.93550500       4.22152900       0.17822500
H        6.75033500       0.44779700       0.16755800
H       -0.40199700       4.81321100       0.07071000
H       -2.84532000       5.09816700       0.00933800
H       -3.70773700      -1.61056600      -0.17200800
H       -1.27202900      -1.95588300      -0.11238600
H       -6.52266300       2.16338500      -0.16179200
C        5.28060808       6.80230739       2.12122118
C        4.15738587       7.39378904       2.78339610
C        4.32450720       7.91224779       4.13706670
C        6.56298600       6.70568739       2.75055695
C        6.73026554       7.22424877       4.10408161
C        5.60697656       7.81561612       4.76625541
C        5.76921575       8.31976852       6.08219654
C        7.03571066       8.23320988       6.72458179
C        4.66497177       8.91093664       6.75683531
C        4.83419782       9.43825839       8.13301131
C        7.94860331       7.15818491       4.76313757
C        8.10576851       7.66016657       6.07038187
C        3.27255059       8.49526266       4.82728312
C        3.43742766       8.99495308       6.13441622
C        7.20563288       8.76033653       8.10066994
N        6.09495850       9.33271749       8.72607599
O        3.90832475       9.96567876       8.77477870
O        8.28626684       8.71414333       8.71496912
C        2.93912819       7.46016866       2.12441257
C        2.78192862       6.95824605       0.81719195
C        5.11848393       6.29812416       0.80538210
C        3.85196281       6.38502300       0.16321163
C        6.22261166       5.70672710       0.13075225
C        7.44995961       5.62274114       0.75352259
C        7.61492937       6.12249830       2.06057193
C        3.68197013       5.85786644      -1.21292573
C        6.05335956       5.17931629      -1.24540655
N        4.79254013       5.28521213      -1.83829174
O        2.60138452       5.90426862      -1.82727437
O        6.97906443       4.65162944      -1.88718546
H        8.83566945       6.71151983       4.28875703
H        9.08751187       7.59441222       6.57149447
H        2.27181022       8.58830923       4.37864487
H        2.58239628       9.45439016       6.66086528
H        6.20918287       9.68807093       9.65356427
H        2.05217924       7.90704868       2.59882455
H        1.80022737       7.02414433       0.31588918
H        8.30503389       5.16312849       0.22723213
H        8.61554399       6.02945191       2.50945457
H        4.67816010       4.92985782      -2.76575805
