80
Dimer: struct; Energy: -4906.06228 eV
C       -1.29972200       1.48833600      -0.03228100
C       -0.45010500       2.63965400       0.01843500
C        0.99654200       2.45238200       0.05441800
C       -0.76903400       0.15867800      -0.04877100
C        0.67752200      -0.02870400      -0.01297900
C        1.52709100       1.12265000       0.03785500
C        2.93347700       0.94084900       0.07277000
C        3.48023700      -0.37253000       0.05696900
C        3.79427800       2.07240500       0.12351100
C        5.26507800       1.88272800       0.16006300
C        1.24802600      -1.29258500      -0.02698300
C        2.64560500      -1.46904700       0.00777700
C        1.86805800       3.52983300       0.10418700
C        3.26457400       3.34539700       0.13880400
C        4.95087500      -0.56291500       0.09346700
N        5.75909100       0.57580800       0.14293500
O        6.06925500       2.83065500       0.20492200
O        5.48910000      -1.68427500       0.08194900
C       -1.02041300       3.90352800       0.03216900
C       -2.41794600       4.08003500      -0.00262400
C       -2.70602800       1.67000700      -0.06716000
C       -3.25245200       2.98347100      -0.05156500
C       -3.56691500       0.53850500      -0.11766500
C       -3.03687800      -0.73433100      -0.13279200
C       -1.64041100      -0.91883000      -0.09829200
C       -4.72314700       3.17392200      -0.08803700
C       -5.03773600       0.72818300      -0.15412500
N       -5.53143900       2.03522700      -0.13722100
O       -5.26133100       4.29529300      -0.07673500
O       -5.84203300      -0.21964700      -0.19870900
H        0.62972700      -2.20233100      -0.06573200
H        3.07286500      -2.48716200      -0.00439800
H        1.49989900       4.56697900       0.11841200
H        3.93550500       4.22152900       0.17822500
H        6.75033500       0.44779700       0.16755800
H       -0.40199700       4.81321100       0.07071000
H       -2.84532000       5.09816700       0.00933800
H       -3.70773700      -1.61056600      -0.17200800
H       -1.27202900      -1.95588300      -0.11238600
H       -6.52266300       2.16338500      -0.16179200
C        3.80161173       7.21783030       8.77188455
C        3.99570020       8.41034233       8.00364044
C        4.28905134       8.29611469       6.57884211
C        3.88731443       5.91667278       8.18066865
C        4.18046209       5.80233131       6.75592031
C        4.37465795       6.99487650       5.98774614
C        4.65977795       6.88408688       4.60260193
C        4.74891796       5.59999552       3.99652934
C        4.85599129       8.05742581       3.82237883
C        5.15420473       7.94201189       2.37382285
C        4.27529946       4.56886585       6.12931443
C        4.55867229       4.46296499       4.75306626
C        4.48652416       9.41596091       5.78520070
C        4.76961373       9.30204310       4.40957178
C        5.04705360       5.48386651       2.54808746
N        5.23263608       6.66171673       1.81967943
O        5.33564009       8.92912086       1.63899249
O        5.13778030       4.39110506       1.96079864
C        3.90063196       9.64381154       8.63000538
C        3.61723457       9.74975978      10.00620473
C        3.51654212       7.32849400      10.15695001
C        3.42725855       8.61268786      10.76266005
C        3.32054544       6.15520391      10.93730226
C        3.40714458       4.91075867      10.34981934
C        3.69011067       4.79677585       8.97421463
C        3.12913799       8.72887982      12.21116587
C        3.02241880       6.27061747      12.38589526
N        2.94382134       7.55105282      12.93970044
O        3.03820595       9.82165501      12.79837658
O        2.84123220       5.28359844      13.12089728
H        4.13265869       3.62923905       6.68446124
H        4.62845203       3.46772547       4.27989971
H        4.42914503      10.43317964       6.20160064
H        4.92245555      10.21074967       3.80112995
H        5.43360673       6.58375552       0.84341583
H        4.04308919      10.58338200       8.07470347
H        3.54722487      10.74501121      10.47944635
H        3.25451789       4.00195221      10.95822165
H        3.74765778       3.77966081       8.55762346
H        2.74290456       7.62916169      13.91596100
