80
Dimer: struct; Energy: -4906.06228 eV
C       -1.29972200       1.48833600      -0.03228100
C       -0.45010500       2.63965400       0.01843500
C        0.99654200       2.45238200       0.05441800
C       -0.76903400       0.15867800      -0.04877100
C        0.67752200      -0.02870400      -0.01297900
C        1.52709100       1.12265000       0.03785500
C        2.93347700       0.94084900       0.07277000
C        3.48023700      -0.37253000       0.05696900
C        3.79427800       2.07240500       0.12351100
C        5.26507800       1.88272800       0.16006300
C        1.24802600      -1.29258500      -0.02698300
C        2.64560500      -1.46904700       0.00777700
C        1.86805800       3.52983300       0.10418700
C        3.26457400       3.34539700       0.13880400
C        4.95087500      -0.56291500       0.09346700
N        5.75909100       0.57580800       0.14293500
O        6.06925500       2.83065500       0.20492200
O        5.48910000      -1.68427500       0.08194900
C       -1.02041300       3.90352800       0.03216900
C       -2.41794600       4.08003500      -0.00262400
C       -2.70602800       1.67000700      -0.06716000
C       -3.25245200       2.98347100      -0.05156500
C       -3.56691500       0.53850500      -0.11766500
C       -3.03687800      -0.73433100      -0.13279200
C       -1.64041100      -0.91883000      -0.09829200
C       -4.72314700       3.17392200      -0.08803700
C       -5.03773600       0.72818300      -0.15412500
N       -5.53143900       2.03522700      -0.13722100
O       -5.26133100       4.29529300      -0.07673500
O       -5.84203300      -0.21964700      -0.19870900
H        0.62972700      -2.20233100      -0.06573200
H        3.07286500      -2.48716200      -0.00439800
H        1.49989900       4.56697900       0.11841200
H        3.93550500       4.22152900       0.17822500
H        6.75033500       0.44779700       0.16755800
H       -0.40199700       4.81321100       0.07071000
H       -2.84532000       5.09816700       0.00933800
H       -3.70773700      -1.61056600      -0.17200800
H       -1.27202900      -1.95588300      -0.11238600
H       -6.52266300       2.16338500      -0.16179200
C        0.54422159      10.42504110       0.63811304
C       -0.23218670      11.59152341       0.93215979
C       -0.23337216      12.11809973       2.29299376
C        1.31937932       9.76128364       1.64232845
C        1.31841767      10.28784623       3.00308128
C        0.54189622      11.45426618       3.29709920
C        0.54064257      11.96640362       4.61993929
C        1.30460905      11.32105180       5.63188633
C       -0.22465272      13.12441301       4.93188380
C       -0.22626281      13.66029820       6.31513740
C        2.05005397       9.68688130       4.01630168
C        2.04625273      10.19868565       5.32916726
C       -0.96625262      13.24418163       2.63613156
C       -0.96512328      13.75004563       3.95126359
C        1.30347373      11.85640066       7.01527166
N        0.53797905      12.99549913       7.27761269
O       -0.87407443      14.66791150       6.65030023
O        1.95001938      11.33768409       7.94272998
C       -0.96361401      12.19272347      -0.08094923
C       -0.95981585      11.68098992      -1.39380037
C        0.54551928       9.91283124      -0.68459510
C       -0.21835245      10.55851216      -1.69632936
C        1.31059840       8.75468936      -0.99658115
C        2.05082369       8.12922916      -0.01569095
C        2.05208711       8.63509093       1.29939555
C       -0.21727399      10.02316808      -3.07978558
C        1.31213545       8.21874448      -2.37983175
N        0.54798100       8.88389740      -3.34213731
O       -0.86365562      10.54203013      -4.00726369
O        1.95967601       7.21099115      -2.71507427
H        2.65941169       8.78921517       3.83106774
H        2.63821239       9.69997396       6.11664925
H       -1.57463352      13.78256497       1.89354737
H       -1.55803467      14.64865976       4.19673954
H        0.53700925      13.35654095       8.20992467
H       -1.57277443      13.09051495       0.10436393
H       -1.55160848      12.17977717      -2.18144062
H        2.64362816       7.23046469      -0.26101268
H        2.66029472       8.09680421       2.04216993
H        0.54882036       8.52293815      -4.27447896
