80
Dimer: struct; Energy: -4906.06228 eV
C       -1.29972200       1.48833600      -0.03228100
C       -0.45010500       2.63965400       0.01843500
C        0.99654200       2.45238200       0.05441800
C       -0.76903400       0.15867800      -0.04877100
C        0.67752200      -0.02870400      -0.01297900
C        1.52709100       1.12265000       0.03785500
C        2.93347700       0.94084900       0.07277000
C        3.48023700      -0.37253000       0.05696900
C        3.79427800       2.07240500       0.12351100
C        5.26507800       1.88272800       0.16006300
C        1.24802600      -1.29258500      -0.02698300
C        2.64560500      -1.46904700       0.00777700
C        1.86805800       3.52983300       0.10418700
C        3.26457400       3.34539700       0.13880400
C        4.95087500      -0.56291500       0.09346700
N        5.75909100       0.57580800       0.14293500
O        6.06925500       2.83065500       0.20492200
O        5.48910000      -1.68427500       0.08194900
C       -1.02041300       3.90352800       0.03216900
C       -2.41794600       4.08003500      -0.00262400
C       -2.70602800       1.67000700      -0.06716000
C       -3.25245200       2.98347100      -0.05156500
C       -3.56691500       0.53850500      -0.11766500
C       -3.03687800      -0.73433100      -0.13279200
C       -1.64041100      -0.91883000      -0.09829200
C       -4.72314700       3.17392200      -0.08803700
C       -5.03773600       0.72818300      -0.15412500
N       -5.53143900       2.03522700      -0.13722100
O       -5.26133100       4.29529300      -0.07673500
O       -5.84203300      -0.21964700      -0.19870900
H        0.62972700      -2.20233100      -0.06573200
H        3.07286500      -2.48716200      -0.00439800
H        1.49989900       4.56697900       0.11841200
H        3.93550500       4.22152900       0.17822500
H        6.75033500       0.44779700       0.16755800
H       -0.40199700       4.81321100       0.07071000
H       -2.84532000       5.09816700       0.00933800
H       -3.70773700      -1.61056600      -0.17200800
H       -1.27202900      -1.95588300      -0.11238600
H       -6.52266300       2.16338500      -0.16179200
C        6.97741850       2.38035887       9.48250697
C        7.54625490       2.69244279       8.20619076
C        7.22950445       1.84403261       7.06206557
C        6.10647163       1.25905932       9.66698172
C        5.78951986       0.41073143       8.52295432
C        6.35847917       0.72279432       7.24668254
C        6.05064116      -0.10179577       6.13426212
C        5.18705022      -1.22064395       6.29720385
C        6.60620885       0.19186101       4.85790707
C        6.28456302      -0.67022237       3.69432542
C        4.95217191      -0.68825044       8.64192226
C        4.64874771      -1.50495798       7.53444914
C        7.75117381       2.09753663       5.80249638
C        7.44318655       1.27619852       4.69976365
C        4.86497735      -2.08308172       5.13409387
N        5.43229527      -1.75836976       3.89915955
O        6.73824788      -0.46604704       2.55425478
O        4.11752740      -3.07427692       5.21230973
C        8.38335119       3.79148021       8.08701081
C        8.68676760       4.60821388       9.19441695
C        7.28519678       3.20480395      10.59492789
C        8.14861755       4.32366295      10.43162080
C        6.72986284       2.91108845      11.87137192
C        5.89305355       1.82659535      12.02918336
C        5.58494440       1.00530723      10.92650263
C        8.47075877       5.18615680      11.59475233
C        7.05158612       3.77312969      13.03498721
N        7.90369621       4.86133652      12.82978803
O        9.21803599       6.17746374      11.51645818
O        6.59819664       3.56891793      14.17516204
H        4.49506085      -0.96146259       9.60516550
H        3.97880186      -2.37398314       7.65784009
H        8.42411111       2.94906983       5.61957063
H        7.87272711       1.50132992       3.70773519
H        5.21541007      -2.33948047       3.11504927
H        8.84024055       4.06471393       7.12366125
H        9.35657197       5.47742852       9.07107828
H        5.46360511       1.60124313      13.02123572
H        4.91212906       0.15365088      11.10921508
H        8.12070486       5.44250394      13.61381921
