80
Dimer: struct; Energy: -4906.06228 eV
C       -1.29972200       1.48833600      -0.03228100
C       -0.45010500       2.63965400       0.01843500
C        0.99654200       2.45238200       0.05441800
C       -0.76903400       0.15867800      -0.04877100
C        0.67752200      -0.02870400      -0.01297900
C        1.52709100       1.12265000       0.03785500
C        2.93347700       0.94084900       0.07277000
C        3.48023700      -0.37253000       0.05696900
C        3.79427800       2.07240500       0.12351100
C        5.26507800       1.88272800       0.16006300
C        1.24802600      -1.29258500      -0.02698300
C        2.64560500      -1.46904700       0.00777700
C        1.86805800       3.52983300       0.10418700
C        3.26457400       3.34539700       0.13880400
C        4.95087500      -0.56291500       0.09346700
N        5.75909100       0.57580800       0.14293500
O        6.06925500       2.83065500       0.20492200
O        5.48910000      -1.68427500       0.08194900
C       -1.02041300       3.90352800       0.03216900
C       -2.41794600       4.08003500      -0.00262400
C       -2.70602800       1.67000700      -0.06716000
C       -3.25245200       2.98347100      -0.05156500
C       -3.56691500       0.53850500      -0.11766500
C       -3.03687800      -0.73433100      -0.13279200
C       -1.64041100      -0.91883000      -0.09829200
C       -4.72314700       3.17392200      -0.08803700
C       -5.03773600       0.72818300      -0.15412500
N       -5.53143900       2.03522700      -0.13722100
O       -5.26133100       4.29529300      -0.07673500
O       -5.84203300      -0.21964700      -0.19870900
H        0.62972700      -2.20233100      -0.06573200
H        3.07286500      -2.48716200      -0.00439800
H        1.49989900       4.56697900       0.11841200
H        3.93550500       4.22152900       0.17822500
H        6.75033500       0.44779700       0.16755800
H       -0.40199700       4.81321100       0.07071000
H       -2.84532000       5.09816700       0.00933800
H       -3.70773700      -1.61056600      -0.17200800
H       -1.27202900      -1.95588300      -0.11238600
H       -6.52266300       2.16338500      -0.16179200
C        5.41324249       6.18033735       2.57699142
C        4.78617932       7.46696821       2.61342106
C        5.26745490       8.51593111       1.72055837
C        6.49918885       5.89470958       1.68871818
C        6.98040314       6.94348015       0.79572856
C        6.35337829       8.23013131       0.83228328
C        6.82102636       9.25001466      -0.03566573
C        7.89898734       8.98575472      -0.92579345
C        6.21100584      10.53507670      -0.01415942
C        6.69976509      11.60192046      -0.92164211
C        8.02832890       6.72437799      -0.08569753
C        8.48999654       7.74009635      -0.94636784
C        4.69902066       9.78073433       1.71201024
C        5.16623230      10.79139378       0.84844050
C        8.38819745      10.05208256      -1.83352308
N        7.76044027      11.29921530      -1.77938324
O        6.20863963      12.74440245      -0.95008959
O        9.32563308       9.88313955      -2.63348543
C        3.73812947       7.68613101       3.49454336
C        3.27641779       6.67046139       4.35518341
C        4.94573087       5.16046060       3.44486339
C        3.86764999       5.42496045       4.33469007
C        5.55584349       3.87543759       3.42359373
C        6.60068208       3.61951854       2.56098298
C        7.06785443       4.63006776       1.69733346
C        3.37839530       4.35863107       5.24249901
C        5.06713768       2.80860836       4.33115283
N        4.00629663       3.11154749       5.18861219
O        2.44082253       4.52754043       6.04229249
O        5.55834100       1.66617417       4.35990212
H        8.53641685       5.74977668      -0.14427938
H        9.32642267       7.53795217      -1.63831187
H        3.86298287      10.03990283       2.37930907
H        4.69497869      11.78990707       0.86261596
H        8.08996321      12.01811628      -2.39106435
H        3.22998081       8.66072219       3.55288618
H        2.43981769       6.87245443       5.04705296
H        7.07215855       2.62107573       2.54686393
H        7.90395690       4.37116638       1.03003623
H        3.67670314       2.39275645       5.80038076
