80
Dimer: struct; Energy: -4906.06228 eV
C       -1.29972200       1.48833600      -0.03228100
C       -0.45010500       2.63965400       0.01843500
C        0.99654200       2.45238200       0.05441800
C       -0.76903400       0.15867800      -0.04877100
C        0.67752200      -0.02870400      -0.01297900
C        1.52709100       1.12265000       0.03785500
C        2.93347700       0.94084900       0.07277000
C        3.48023700      -0.37253000       0.05696900
C        3.79427800       2.07240500       0.12351100
C        5.26507800       1.88272800       0.16006300
C        1.24802600      -1.29258500      -0.02698300
C        2.64560500      -1.46904700       0.00777700
C        1.86805800       3.52983300       0.10418700
C        3.26457400       3.34539700       0.13880400
C        4.95087500      -0.56291500       0.09346700
N        5.75909100       0.57580800       0.14293500
O        6.06925500       2.83065500       0.20492200
O        5.48910000      -1.68427500       0.08194900
C       -1.02041300       3.90352800       0.03216900
C       -2.41794600       4.08003500      -0.00262400
C       -2.70602800       1.67000700      -0.06716000
C       -3.25245200       2.98347100      -0.05156500
C       -3.56691500       0.53850500      -0.11766500
C       -3.03687800      -0.73433100      -0.13279200
C       -1.64041100      -0.91883000      -0.09829200
C       -4.72314700       3.17392200      -0.08803700
C       -5.03773600       0.72818300      -0.15412500
N       -5.53143900       2.03522700      -0.13722100
O       -5.26133100       4.29529300      -0.07673500
O       -5.84203300      -0.21964700      -0.19870900
H        0.62972700      -2.20233100      -0.06573200
H        3.07286500      -2.48716200      -0.00439800
H        1.49989900       4.56697900       0.11841200
H        3.93550500       4.22152900       0.17822500
H        6.75033500       0.44779700       0.16755800
H       -0.40199700       4.81321100       0.07071000
H       -2.84532000       5.09816700       0.00933800
H       -3.70773700      -1.61056600      -0.17200800
H       -1.27202900      -1.95588300      -0.11238600
H       -6.52266300       2.16338500      -0.16179200
C        9.35101159       2.92130685       4.13737786
C        9.93580002       1.88034140       4.92754727
C       10.30788073       0.62504626       4.28338643
C        9.12144324       2.76450684       2.73288357
C        9.49363152       1.50939394       2.08861281
C       10.07831022       0.46841583       2.87885517
C       10.44017597      -0.75197724       2.25284703
C       10.22019926      -0.92708822       0.85817612
C       11.02236494      -1.79830734       3.02110566
C       11.40091099      -3.07471510       2.36684871
C        9.29505175       1.30103064       0.73206686
C        9.65590244       0.08728222       0.11386323
C       10.87751890      -0.41788592       4.99803500
C       11.23567472      -1.62878793       4.37280494
C       10.59852137      -2.20316679       0.20330932
N       11.16726609      -3.20396463       0.99532156
O       11.91307952      -4.02592897       2.98341514
O       10.43177262      -2.41685199      -1.01069255
C       10.13468190       2.08863971       6.28396724
C        9.77388947       3.30235000       6.90219043
C        8.98909872       4.14164466       4.76324699
C        9.20939369       4.31651961       6.15784333
C        8.40668788       5.18794474       3.99511437
C        8.19338461       5.01802755       2.64348225
C        8.55160985       3.80723017       2.01818666
C        8.83105063       5.59262317       6.81279509
C        8.02805310       6.46433432       4.64939782
N        8.26203619       6.59336903       6.02089130
O        8.99800922       5.80635534       8.02674981
O        7.51563032       7.41552288       4.03301618
H        8.84874217       2.07595388       0.09040132
H        9.48640637      -0.05152587      -0.96838484
H       11.07000491      -0.33676827       6.07867569
H       11.68774647      -2.44292423       4.96620441
H       11.42234123      -4.06415246       0.55421914
H       10.58119541       1.31370992       6.92549388
H        9.94354498       3.44134010       7.98444879
H        7.74112036       5.83204223       2.05000551
H        8.35910687       3.72584091       0.93758439
H        8.00696668       7.45348440       6.46213311
