80
Dimer: struct; Energy: -4906.06228 eV
C       -1.29972200       1.48833600      -0.03228100
C       -0.45010500       2.63965400       0.01843500
C        0.99654200       2.45238200       0.05441800
C       -0.76903400       0.15867800      -0.04877100
C        0.67752200      -0.02870400      -0.01297900
C        1.52709100       1.12265000       0.03785500
C        2.93347700       0.94084900       0.07277000
C        3.48023700      -0.37253000       0.05696900
C        3.79427800       2.07240500       0.12351100
C        5.26507800       1.88272800       0.16006300
C        1.24802600      -1.29258500      -0.02698300
C        2.64560500      -1.46904700       0.00777700
C        1.86805800       3.52983300       0.10418700
C        3.26457400       3.34539700       0.13880400
C        4.95087500      -0.56291500       0.09346700
N        5.75909100       0.57580800       0.14293500
O        6.06925500       2.83065500       0.20492200
O        5.48910000      -1.68427500       0.08194900
C       -1.02041300       3.90352800       0.03216900
C       -2.41794600       4.08003500      -0.00262400
C       -2.70602800       1.67000700      -0.06716000
C       -3.25245200       2.98347100      -0.05156500
C       -3.56691500       0.53850500      -0.11766500
C       -3.03687800      -0.73433100      -0.13279200
C       -1.64041100      -0.91883000      -0.09829200
C       -4.72314700       3.17392200      -0.08803700
C       -5.03773600       0.72818300      -0.15412500
N       -5.53143900       2.03522700      -0.13722100
O       -5.26133100       4.29529300      -0.07673500
O       -5.84203300      -0.21964700      -0.19870900
H        0.62972700      -2.20233100      -0.06573200
H        3.07286500      -2.48716200      -0.00439800
H        1.49989900       4.56697900       0.11841200
H        3.93550500       4.22152900       0.17822500
H        6.75033500       0.44779700       0.16755800
H       -0.40199700       4.81321100       0.07071000
H       -2.84532000       5.09816700       0.00933800
H       -3.70773700      -1.61056600      -0.17200800
H       -1.27202900      -1.95588300      -0.11238600
H       -6.52266300       2.16338500      -0.16179200
C        1.65293637       8.74125335       7.58476562
C        1.67567909       7.39918489       8.08305199
C        1.05350039       6.33981676       7.29578714
C        1.03675344       9.07232488       6.33552493
C        0.41473828       8.01306984       5.54812843
C        0.43740761       6.67103423       6.04651997
C       -0.16731249       5.64099201       5.28132794
C       -0.78463470       5.94979771       4.03725684
C       -0.15516936       4.30120847       5.75966319
C       -0.78747137       3.22373535       4.95978077
C       -0.19659440       8.27447889       4.33116345
C       -0.79620463       7.24848513       3.57394583
C        1.04481374       5.02227571       7.72813871
C        0.44310028       4.00169929       6.96535657
C       -1.41706274       4.87285521       3.23689173
N       -1.38221608       3.57137722       3.74413034
O       -0.80974486       2.03440951       5.32349288
O       -1.97197822       5.07894715       2.14287985
C        2.28717288       7.13758767       9.29979336
C        2.88680978       8.16351429      10.05700795
C        2.25755319       9.77130985       8.34984051
C        2.87495973       9.46215779       9.59372323
C        2.24525373      11.11116130       7.87169748
C        1.64676886      11.41033197       6.66604733
C        1.04515454      10.38981685       5.90318475
C        3.50740765      10.53911180      10.39417640
C        2.87748364      12.18866226       8.67163406
N        3.47235066      11.84067048       9.88712875
O        4.06249984      10.33295356      11.48807498
O        2.89959338      13.37806373       8.30818060
H       -0.23513264       9.29216507       3.91371577
H       -1.27606027       7.48510886       2.60802385
H        1.50750191       4.72713822       8.68219780
H        0.45076228       2.96076679       7.33374565
H       -1.80840411       2.84531639       3.20491127
H        2.32582877       6.11981710       9.71704114
H        3.36689821       7.92694668      11.02289369
H        1.63886818      12.45129070       6.29764541
H        0.58230121      10.68473669       4.94915543
H        3.89853433      12.56663725      10.42647369
