80
Dimer: struct; Energy: -4906.06228 eV
C       -1.29972200       1.48833600      -0.03228100
C       -0.45010500       2.63965400       0.01843500
C        0.99654200       2.45238200       0.05441800
C       -0.76903400       0.15867800      -0.04877100
C        0.67752200      -0.02870400      -0.01297900
C        1.52709100       1.12265000       0.03785500
C        2.93347700       0.94084900       0.07277000
C        3.48023700      -0.37253000       0.05696900
C        3.79427800       2.07240500       0.12351100
C        5.26507800       1.88272800       0.16006300
C        1.24802600      -1.29258500      -0.02698300
C        2.64560500      -1.46904700       0.00777700
C        1.86805800       3.52983300       0.10418700
C        3.26457400       3.34539700       0.13880400
C        4.95087500      -0.56291500       0.09346700
N        5.75909100       0.57580800       0.14293500
O        6.06925500       2.83065500       0.20492200
O        5.48910000      -1.68427500       0.08194900
C       -1.02041300       3.90352800       0.03216900
C       -2.41794600       4.08003500      -0.00262400
C       -2.70602800       1.67000700      -0.06716000
C       -3.25245200       2.98347100      -0.05156500
C       -3.56691500       0.53850500      -0.11766500
C       -3.03687800      -0.73433100      -0.13279200
C       -1.64041100      -0.91883000      -0.09829200
C       -4.72314700       3.17392200      -0.08803700
C       -5.03773600       0.72818300      -0.15412500
N       -5.53143900       2.03522700      -0.13722100
O       -5.26133100       4.29529300      -0.07673500
O       -5.84203300      -0.21964700      -0.19870900
H        0.62972700      -2.20233100      -0.06573200
H        3.07286500      -2.48716200      -0.00439800
H        1.49989900       4.56697900       0.11841200
H        3.93550500       4.22152900       0.17822500
H        6.75033500       0.44779700       0.16755800
H       -0.40199700       4.81321100       0.07071000
H       -2.84532000       5.09816700       0.00933800
H       -3.70773700      -1.61056600      -0.17200800
H       -1.27202900      -1.95588300      -0.11238600
H       -6.52266300       2.16338500      -0.16179200
C        1.42290852       2.81976515       4.71532488
C        2.65955257       3.00099718       5.41376653
C        3.32553849       4.29782864       5.35176601
C        0.82187812       3.87576739       3.95801795
C        1.48764146       5.17262610       3.89609855
C        2.72434652       5.35376774       4.59446515
C        3.37193266       6.61440904       4.53439902
C        2.79053318       7.67641072       3.78721253
C        4.60154255       6.81404418       5.22155062
C        5.27910548       8.13220909       5.15897422
C        0.95239996       6.23172912       3.17854476
C        1.59872805       7.48255309       3.12132987
C        4.52474083       4.53132826       6.00774575
C        5.16518123       5.78491101       5.94579173
C        3.46751535       8.99477518       3.72424456
N        4.67317223       9.14709798       4.41383830
O        6.35464170       8.36895404       5.73729268
O        3.01017458       9.96127018       3.08863942
C        3.19474993       1.94213960       6.13154208
C        2.54845834       0.69134345       6.18881286
C        0.77529863       1.55924016       4.77528853
C        1.35682311       0.49754230       5.52270876
C       -0.45419576       1.35944085       4.08797657
C       -1.01746612       2.38873746       3.36371519
C       -0.37715559       3.64234061       3.30181386
C        0.67986786      -0.82090763       5.58569256
C       -1.13172019       0.04123163       4.15047908
N       -0.52565972      -0.97338799       4.89588511
O        1.13712260      -1.78731164       6.22147874
O       -2.20710994      -0.19573679       3.57199315
H        0.00417435       6.13296320       2.62850258
H        1.14989328       8.30867051       2.54224882
H        5.01864524       3.74592652       6.59987560
H        6.11966651       5.94319328       6.47797053
H        5.12969169      10.03555780       4.37156664
H        4.14288554       2.04109200       6.68171860
H        2.99713012      -0.13481749       6.76806767
H       -1.97187160       2.23050450       2.83131498
H       -0.87081032       4.42785136       2.70964773
H       -0.98204412      -1.86191235       4.93820481
