80
Dimer: struct; Energy: -4906.06228 eV
C       -1.29972200       1.48833600      -0.03228100
C       -0.45010500       2.63965400       0.01843500
C        0.99654200       2.45238200       0.05441800
C       -0.76903400       0.15867800      -0.04877100
C        0.67752200      -0.02870400      -0.01297900
C        1.52709100       1.12265000       0.03785500
C        2.93347700       0.94084900       0.07277000
C        3.48023700      -0.37253000       0.05696900
C        3.79427800       2.07240500       0.12351100
C        5.26507800       1.88272800       0.16006300
C        1.24802600      -1.29258500      -0.02698300
C        2.64560500      -1.46904700       0.00777700
C        1.86805800       3.52983300       0.10418700
C        3.26457400       3.34539700       0.13880400
C        4.95087500      -0.56291500       0.09346700
N        5.75909100       0.57580800       0.14293500
O        6.06925500       2.83065500       0.20492200
O        5.48910000      -1.68427500       0.08194900
C       -1.02041300       3.90352800       0.03216900
C       -2.41794600       4.08003500      -0.00262400
C       -2.70602800       1.67000700      -0.06716000
C       -3.25245200       2.98347100      -0.05156500
C       -3.56691500       0.53850500      -0.11766500
C       -3.03687800      -0.73433100      -0.13279200
C       -1.64041100      -0.91883000      -0.09829200
C       -4.72314700       3.17392200      -0.08803700
C       -5.03773600       0.72818300      -0.15412500
N       -5.53143900       2.03522700      -0.13722100
O       -5.26133100       4.29529300      -0.07673500
O       -5.84203300      -0.21964700      -0.19870900
H        0.62972700      -2.20233100      -0.06573200
H        3.07286500      -2.48716200      -0.00439800
H        1.49989900       4.56697900       0.11841200
H        3.93550500       4.22152900       0.17822500
H        6.75033500       0.44779700       0.16755800
H       -0.40199700       4.81321100       0.07071000
H       -2.84532000       5.09816700       0.00933800
H       -3.70773700      -1.61056600      -0.17200800
H       -1.27202900      -1.95588300      -0.11238600
H       -6.52266300       2.16338500      -0.16179200
C        8.92275770       2.11360758       2.48376352
C        8.95240180       0.68215734       2.48883624
C        8.97441967      -0.03118538       1.21611848
C        8.91424103       2.86415881       1.26454558
C        8.93644147       2.15096915      -0.00816216
C        8.96596693       0.71951201      -0.00303111
C        8.98744799       0.02581810      -1.24017280
C        8.97956035       0.75371412      -2.46257443
C        9.01684357      -1.39645527      -1.25586886
C        9.03928722      -2.12228443      -2.54940447
C        8.92963840       2.82495685      -1.22008642
C        8.95107542       2.13223695      -2.44697426
C        9.00328183      -1.41642321       1.15954221
C        9.02452162      -2.10211154      -0.07125116
C        9.00202469       0.02855186      -3.75640198
N        9.03059821      -1.36808207      -3.72562103
O        9.06528540      -3.36334546      -2.62921787
O        8.99651939       0.60740034      -4.85738844
C        8.95948294       0.00807371       3.70060290
C        8.93808257       0.70073200       4.92748116
C        8.90123952       2.80735603       3.72076293
C        8.90935098       2.07920338       4.94294867
C        8.87160647       4.22962407       3.73655689
C        8.86378333       4.93494771       2.55176286
C        8.88513542       4.24934563       1.32097284
C        8.88686055       2.80434522       6.23686098
C        8.84907007       4.95545977       5.03010864
N        8.85800113       4.20098602       6.20615372
O        8.89258373       2.22547565       7.33782416
O        8.82279553       6.19649908       5.11007234
H        8.90726737       3.92439431      -1.26666669
H        8.94504055       2.69445318      -3.39730787
H        9.01061553      -2.02919825       2.07380048
H        9.04734711      -3.20598733      -0.08696515
H        9.04572870      -1.85711022      -4.59750423
H        8.98206455      -1.09137126       3.74705463
H        8.94432560       0.13858199       5.87791937
H        8.84075264       6.03885167       2.56735473
H        8.87768433       4.86190599       0.40658936
H        8.84282501       4.68988153       7.07810790
