80
Dimer: struct; Energy: -4906.06228 eV
C       -1.29972200       1.48833600      -0.03228100
C       -0.45010500       2.63965400       0.01843500
C        0.99654200       2.45238200       0.05441800
C       -0.76903400       0.15867800      -0.04877100
C        0.67752200      -0.02870400      -0.01297900
C        1.52709100       1.12265000       0.03785500
C        2.93347700       0.94084900       0.07277000
C        3.48023700      -0.37253000       0.05696900
C        3.79427800       2.07240500       0.12351100
C        5.26507800       1.88272800       0.16006300
C        1.24802600      -1.29258500      -0.02698300
C        2.64560500      -1.46904700       0.00777700
C        1.86805800       3.52983300       0.10418700
C        3.26457400       3.34539700       0.13880400
C        4.95087500      -0.56291500       0.09346700
N        5.75909100       0.57580800       0.14293500
O        6.06925500       2.83065500       0.20492200
O        5.48910000      -1.68427500       0.08194900
C       -1.02041300       3.90352800       0.03216900
C       -2.41794600       4.08003500      -0.00262400
C       -2.70602800       1.67000700      -0.06716000
C       -3.25245200       2.98347100      -0.05156500
C       -3.56691500       0.53850500      -0.11766500
C       -3.03687800      -0.73433100      -0.13279200
C       -1.64041100      -0.91883000      -0.09829200
C       -4.72314700       3.17392200      -0.08803700
C       -5.03773600       0.72818300      -0.15412500
N       -5.53143900       2.03522700      -0.13722100
O       -5.26133100       4.29529300      -0.07673500
O       -5.84203300      -0.21964700      -0.19870900
H        0.62972700      -2.20233100      -0.06573200
H        3.07286500      -2.48716200      -0.00439800
H        1.49989900       4.56697900       0.11841200
H        3.93550500       4.22152900       0.17822500
H        6.75033500       0.44779700       0.16755800
H       -0.40199700       4.81321100       0.07071000
H       -2.84532000       5.09816700       0.00933800
H       -3.70773700      -1.61056600      -0.17200800
H       -1.27202900      -1.95588300      -0.11238600
H       -6.52266300       2.16338500      -0.16179200
C        5.74289327       0.35111256       8.90034851
C        5.86537055       1.69577169       9.37663143
C        5.95668913       2.78493661       8.40991854
C        5.70745079       0.04586840       7.50197020
C        5.79857135       1.13490650       6.53521770
C        5.92116556       2.47953992       7.01155710
C        6.00988428       3.53854141       6.07196300
C        5.97631727       3.25566699       4.67804196
C        6.13224402       4.88137507       6.52561247
C        6.22507800       5.98913045       5.54335694
C        5.76934609       0.89929447       5.16894577
C        5.85770370       1.95401401       4.23871259
C        6.07684569       4.10637148       8.81277092
C        6.16476702       5.15575293       7.87653360
C        6.06906841       4.36289467       3.69529135
N        6.18815488       5.66633734       4.18437814
O        6.33344551       7.18259771       5.87678005
O        6.04540080       4.18030281       2.46510148
C        5.89433426       1.93155601      10.74278815
C        5.80594705       0.87690144      11.67303285
C        5.65420984      -0.70789751       9.83979004
C        5.68758800      -0.42468688      11.23359337
C        5.53208382      -2.05078442       9.38623304
C        5.49974553      -2.32480831       8.03525388
C        5.58754599      -1.27549651       7.09899214
C        5.59486247      -1.53192608      12.21643054
C        5.43934085      -3.15856142      10.36850099
N        5.47605726      -2.83543081      11.72740898
O        5.61831645      -1.34928282      13.44660695
O        5.33124590      -4.35208799      10.03522494
H        5.67613610      -0.11943839       4.76283228
H        5.83190127       1.73755551       3.15624437
H        6.10778941       4.38224238       9.87783099
H        6.25982798       6.19913237       8.22529206
H        6.25070352       6.41280848       3.52224048
H        5.98733953       2.95036123      11.14878428
H        5.83153248       1.09328641      12.75557953
H        5.40488913      -3.36819669       7.68636934
H        5.55674542      -1.55113784       6.03388368
H        5.41356598      -3.58180580      12.38965700
