80
Dimer: struct; Energy: -4906.06228 eV
C       -1.29972200       1.48833600      -0.03228100
C       -0.45010500       2.63965400       0.01843500
C        0.99654200       2.45238200       0.05441800
C       -0.76903400       0.15867800      -0.04877100
C        0.67752200      -0.02870400      -0.01297900
C        1.52709100       1.12265000       0.03785500
C        2.93347700       0.94084900       0.07277000
C        3.48023700      -0.37253000       0.05696900
C        3.79427800       2.07240500       0.12351100
C        5.26507800       1.88272800       0.16006300
C        1.24802600      -1.29258500      -0.02698300
C        2.64560500      -1.46904700       0.00777700
C        1.86805800       3.52983300       0.10418700
C        3.26457400       3.34539700       0.13880400
C        4.95087500      -0.56291500       0.09346700
N        5.75909100       0.57580800       0.14293500
O        6.06925500       2.83065500       0.20492200
O        5.48910000      -1.68427500       0.08194900
C       -1.02041300       3.90352800       0.03216900
C       -2.41794600       4.08003500      -0.00262400
C       -2.70602800       1.67000700      -0.06716000
C       -3.25245200       2.98347100      -0.05156500
C       -3.56691500       0.53850500      -0.11766500
C       -3.03687800      -0.73433100      -0.13279200
C       -1.64041100      -0.91883000      -0.09829200
C       -4.72314700       3.17392200      -0.08803700
C       -5.03773600       0.72818300      -0.15412500
N       -5.53143900       2.03522700      -0.13722100
O       -5.26133100       4.29529300      -0.07673500
O       -5.84203300      -0.21964700      -0.19870900
H        0.62972700      -2.20233100      -0.06573200
H        3.07286500      -2.48716200      -0.00439800
H        1.49989900       4.56697900       0.11841200
H        3.93550500       4.22152900       0.17822500
H        6.75033500       0.44779700       0.16755800
H       -0.40199700       4.81321100       0.07071000
H       -2.84532000       5.09816700       0.00933800
H       -3.70773700      -1.61056600      -0.17200800
H       -1.27202900      -1.95588300      -0.11238600
H       -6.52266300       2.16338500      -0.16179200
C        2.28853349       4.70780140       7.32386938
C        1.44684068       5.08816418       8.41786740
C        1.78415668       4.63468656       9.76312911
C        3.45185501       3.89502724       7.51353560
C        3.78935566       3.44166749       8.85870309
C        2.94755986       3.82196382       9.95265106
C        3.27531579       3.38129891      11.26054354
C        4.42732970       2.57301538      11.46959433
C        2.45122864       3.74862186      12.36051000
C        2.79360912       3.28798281      13.72841106
C        4.90358178       2.65291709       9.10250439
C        5.22584218       2.21719386      10.40322252
C        1.00602896       4.97162303      10.86035690
C        1.33468677       4.53201388      12.15812411
C        4.77029201       2.11208021      12.83717259
N        3.93363195       2.49604965      13.88832323
O        2.11373967       3.57514343      14.72970766
O        5.76291922       1.40434260      13.08428752
C        0.33280131       5.87708736       8.17428204
C        0.01052968       6.31285116       6.87362272
C        1.96087397       5.14834982       6.01601856
C        0.80895580       5.95677141       5.80733427
C        2.78477119       4.78088218       4.91595726
C        3.90113972       3.99736288       5.11868452
C        4.22990804       3.55782675       6.41640159
C        0.46591709       6.41773325       4.43971437
C        2.44233471       5.24145134       3.54802641
N        1.30238250       6.03356383       3.38846710
O       -0.52659065       7.12564388       4.19266460
O        3.12195238       4.95414467       2.54660852
H        5.57546496       2.33938104       8.28905429
H        6.11931355       1.58979556      10.56856392
H        0.10436820       5.59421267      10.75640866
H        0.69717475       4.81531732      13.01406061
H        4.16452993       2.18551673      14.81017636
H       -0.33889611       6.19073351       8.98785170
H       -0.88285085       6.94045800       6.70819818
H        4.53862922       3.71382111       4.26277058
H        5.13145078       2.93512959       6.52057354
H        1.07133863       6.34412799       2.46666351
