80
Dimer: struct; Energy: -4906.06228 eV
C       -1.29972200       1.48833600      -0.03228100
C       -0.45010500       2.63965400       0.01843500
C        0.99654200       2.45238200       0.05441800
C       -0.76903400       0.15867800      -0.04877100
C        0.67752200      -0.02870400      -0.01297900
C        1.52709100       1.12265000       0.03785500
C        2.93347700       0.94084900       0.07277000
C        3.48023700      -0.37253000       0.05696900
C        3.79427800       2.07240500       0.12351100
C        5.26507800       1.88272800       0.16006300
C        1.24802600      -1.29258500      -0.02698300
C        2.64560500      -1.46904700       0.00777700
C        1.86805800       3.52983300       0.10418700
C        3.26457400       3.34539700       0.13880400
C        4.95087500      -0.56291500       0.09346700
N        5.75909100       0.57580800       0.14293500
O        6.06925500       2.83065500       0.20492200
O        5.48910000      -1.68427500       0.08194900
C       -1.02041300       3.90352800       0.03216900
C       -2.41794600       4.08003500      -0.00262400
C       -2.70602800       1.67000700      -0.06716000
C       -3.25245200       2.98347100      -0.05156500
C       -3.56691500       0.53850500      -0.11766500
C       -3.03687800      -0.73433100      -0.13279200
C       -1.64041100      -0.91883000      -0.09829200
C       -4.72314700       3.17392200      -0.08803700
C       -5.03773600       0.72818300      -0.15412500
N       -5.53143900       2.03522700      -0.13722100
O       -5.26133100       4.29529300      -0.07673500
O       -5.84203300      -0.21964700      -0.19870900
H        0.62972700      -2.20233100      -0.06573200
H        3.07286500      -2.48716200      -0.00439800
H        1.49989900       4.56697900       0.11841200
H        3.93550500       4.22152900       0.17822500
H        6.75033500       0.44779700       0.16755800
H       -0.40199700       4.81321100       0.07071000
H       -2.84532000       5.09816700       0.00933800
H       -3.70773700      -1.61056600      -0.17200800
H       -1.27202900      -1.95588300      -0.11238600
H       -6.52266300       2.16338500      -0.16179200
C        7.85669436       7.22213864       2.92029473
C        7.52506973       5.83272765       2.82274204
C        8.59780175       4.84398035       2.85063304
C        9.21158574       7.66792312       3.04454288
C       10.28432936       6.67931315       3.07262848
C        9.95265521       5.28991776       2.97495402
C       10.99532955       4.32852055       3.00211783
C       12.34813066       4.75154626       3.12515841
C       10.68597435       2.94321103       2.90625922
C       11.77606272       1.93749226       2.93459925
C       11.61465372       7.05240221       3.19140460
C       12.64759353       6.09433158       3.21805366
C        8.33658502       3.48514889       2.75974505
C        9.37492648       2.53300694       2.78703285
C       13.43865225       3.74640509       3.15359394
N       13.09003139       2.39680587       3.05666256
O       11.57031033       0.71332257       2.85489297
O       14.63956919       4.05285473       3.25920730
C        6.19485632       5.45948850       2.70424254
C        5.16190915       6.41749446       2.67762501
C        6.81417328       8.18355846       2.89310655
C        5.46150726       7.76021728       2.77027759
C        7.12344959       9.56890303       2.98872317
C        8.43460392       9.97875428       3.10778538
C        9.47295346       9.02668848       3.13519232
C        4.37090064       8.76536023       2.74180969
C        6.03335381      10.57463872       2.96029060
N        4.71947244      10.11500427       2.83845332
O        3.16998557       8.45886867       2.63641243
O        6.23897556      11.79884256       3.03971193
H       11.91078668       8.10962029       3.26904552
H       13.69846396       6.41963530       3.31348072
H        7.30919367       3.10234263       2.66309300
H        9.13825442       1.45700003       2.71283608
H       13.82483071       1.71911712       3.07578538
H        5.89883107       4.40221781       2.62681739
H        4.11093691       6.09226389       2.58240516
H        8.67141601      11.05477530       3.18178718
H       10.50042633       9.40926612       3.23171542
H        3.98457745      10.79258420       2.81926952
