80
Dimer: struct; Energy: -4906.06228 eV
C       -1.29972200       1.48833600      -0.03228100
C       -0.45010500       2.63965400       0.01843500
C        0.99654200       2.45238200       0.05441800
C       -0.76903400       0.15867800      -0.04877100
C        0.67752200      -0.02870400      -0.01297900
C        1.52709100       1.12265000       0.03785500
C        2.93347700       0.94084900       0.07277000
C        3.48023700      -0.37253000       0.05696900
C        3.79427800       2.07240500       0.12351100
C        5.26507800       1.88272800       0.16006300
C        1.24802600      -1.29258500      -0.02698300
C        2.64560500      -1.46904700       0.00777700
C        1.86805800       3.52983300       0.10418700
C        3.26457400       3.34539700       0.13880400
C        4.95087500      -0.56291500       0.09346700
N        5.75909100       0.57580800       0.14293500
O        6.06925500       2.83065500       0.20492200
O        5.48910000      -1.68427500       0.08194900
C       -1.02041300       3.90352800       0.03216900
C       -2.41794600       4.08003500      -0.00262400
C       -2.70602800       1.67000700      -0.06716000
C       -3.25245200       2.98347100      -0.05156500
C       -3.56691500       0.53850500      -0.11766500
C       -3.03687800      -0.73433100      -0.13279200
C       -1.64041100      -0.91883000      -0.09829200
C       -4.72314700       3.17392200      -0.08803700
C       -5.03773600       0.72818300      -0.15412500
N       -5.53143900       2.03522700      -0.13722100
O       -5.26133100       4.29529300      -0.07673500
O       -5.84203300      -0.21964700      -0.19870900
H        0.62972700      -2.20233100      -0.06573200
H        3.07286500      -2.48716200      -0.00439800
H        1.49989900       4.56697900       0.11841200
H        3.93550500       4.22152900       0.17822500
H        6.75033500       0.44779700       0.16755800
H       -0.40199700       4.81321100       0.07071000
H       -2.84532000       5.09816700       0.00933800
H       -3.70773700      -1.61056600      -0.17200800
H       -1.27202900      -1.95588300      -0.11238600
H       -6.52266300       2.16338500      -0.16179200
C        4.20140512       4.79777365       5.65032388
C        4.93485718       5.59948616       6.58266471
C        6.10703851       6.33384555       6.11805699
C        4.58632223       4.69693205       4.27498325
C        5.75831356       5.43135122       3.81024444
C        6.49179914       6.23295775       4.74265717
C        7.63132351       6.94701100       4.29121015
C        8.02983367       6.85982770       2.92821738
C        8.37329006       7.74888778       5.20250114
C        9.56503839       8.49575699       4.73081446
C        6.17792367       5.37168076       2.48985325
C        7.31044113       6.08252272       2.04523873
C        6.85580387       7.12568080       6.97553301
C        7.98721479       7.83354472       6.52352648
C        9.22140493       7.60642566       2.45587840
N        9.92079200       8.38169421       3.38440770
O       10.25430981       9.21280444       5.47782614
O        9.61982564       7.57096453       1.27805392
C        4.51524076       5.65947146       7.90294542
C        3.38274111       4.94869476       8.34758550
C        3.06196347       4.08369780       6.10163958
C        2.66359925       4.17125516       7.46459583
C        2.32007156       3.28160912       5.19047324
C        2.70651591       3.19706299       3.86956739
C        3.83781591       3.90496872       3.41748335
C        1.47199959       3.42462563       7.93701529
C        1.12836188       2.53465816       5.66218691
N        0.77272347       2.64910615       7.00859524
O        1.07348177       3.46027814       9.11479078
O        0.43916237       1.81736320       4.91535688
H        5.64150266       4.76724973       1.74262601
H        7.62213388       6.01682112       0.98798360
H        6.59292410       7.22925469       8.03929140
H        8.56532023       8.45682889       7.22823964
H       10.72395887       8.88499881       3.06634288
H        5.05162853       6.26410781       8.65003976
H        3.07082949       5.01449946       9.40482969
H        2.12858915       2.57363122       3.16479016
H        4.10095455       3.80145034       2.35379878
H       -0.03039295       2.14581903       7.32680793
