80
Dimer: struct; Energy: -4906.06228 eV
C       -1.29972200       1.48833600      -0.03228100
C       -0.45010500       2.63965400       0.01843500
C        0.99654200       2.45238200       0.05441800
C       -0.76903400       0.15867800      -0.04877100
C        0.67752200      -0.02870400      -0.01297900
C        1.52709100       1.12265000       0.03785500
C        2.93347700       0.94084900       0.07277000
C        3.48023700      -0.37253000       0.05696900
C        3.79427800       2.07240500       0.12351100
C        5.26507800       1.88272800       0.16006300
C        1.24802600      -1.29258500      -0.02698300
C        2.64560500      -1.46904700       0.00777700
C        1.86805800       3.52983300       0.10418700
C        3.26457400       3.34539700       0.13880400
C        4.95087500      -0.56291500       0.09346700
N        5.75909100       0.57580800       0.14293500
O        6.06925500       2.83065500       0.20492200
O        5.48910000      -1.68427500       0.08194900
C       -1.02041300       3.90352800       0.03216900
C       -2.41794600       4.08003500      -0.00262400
C       -2.70602800       1.67000700      -0.06716000
C       -3.25245200       2.98347100      -0.05156500
C       -3.56691500       0.53850500      -0.11766500
C       -3.03687800      -0.73433100      -0.13279200
C       -1.64041100      -0.91883000      -0.09829200
C       -4.72314700       3.17392200      -0.08803700
C       -5.03773600       0.72818300      -0.15412500
N       -5.53143900       2.03522700      -0.13722100
O       -5.26133100       4.29529300      -0.07673500
O       -5.84203300      -0.21964700      -0.19870900
H        0.62972700      -2.20233100      -0.06573200
H        3.07286500      -2.48716200      -0.00439800
H        1.49989900       4.56697900       0.11841200
H        3.93550500       4.22152900       0.17822500
H        6.75033500       0.44779700       0.16755800
H       -0.40199700       4.81321100       0.07071000
H       -2.84532000       5.09816700       0.00933800
H       -3.70773700      -1.61056600      -0.17200800
H       -1.27202900      -1.95588300      -0.11238600
H       -6.52266300       2.16338500      -0.16179200
C        3.44390154       5.96760108       1.84992558
C        4.83916002       6.16038837       1.59294085
C        5.77019296       5.07483572       1.88260654
C        2.93719277       4.73922991       2.38306961
C        3.86805581       3.65360049       2.67258664
C        5.26332218       3.84648478       2.41569166
C        6.16860675       2.79128889       2.69714095
C        5.68456946       1.56289442       3.22715557
C        7.55877121       2.96368886       2.44876012
C        8.50582628       1.86047007       2.74297268
C        3.43465977       2.44198811       3.18952901
C        4.33709544       1.39615311       3.46776122
C        7.13179039       5.20448959       1.65422078
C        8.02809703       4.15413799       1.93505498
C        6.63102470       0.45930583       3.52155218
N        7.98759270       0.67141126       3.26254481
O        9.73109380       1.94965105       2.54792182
O        6.26992266      -0.63699651       3.98522617
C        5.27265099       7.37176968       1.07577721
C        4.37027361       8.41759137       0.79750432
C        2.53859380       7.02267102       1.56856683
C        3.02289938       8.25082208       1.03837519
C        1.14844036       6.85044657       1.81713495
C        0.67948700       5.65993205       2.33098070
C        1.57569740       4.60953173       2.61172313
C        2.07645100       9.35450112       0.74397137
C        0.20138526       7.95371230       1.52300426
N        0.71989149       9.14256432       1.00322105
O        2.43755600      10.45070755       0.28009927
O       -1.02386100       7.86477135       1.71825851
H        2.37089412       2.25431071       3.40074635
H        3.96437009       0.44163563       3.87913656
H        7.56049318       6.13220712       1.24560199
H        9.10770577       4.28467452       1.74344370
H        8.62573828      -0.07222168       3.46088299
H        6.33642655       7.55925456       0.86440574
H        4.74289383       9.37212251       0.38591123
H       -0.40010591       5.52935152       2.52282785
H        1.14723950       3.68176988       3.02045855
H        0.08186699       9.88629748       0.80488055
