80
Dimer: struct; Energy: -4906.06228 eV
C       -1.29972200       1.48833600      -0.03228100
C       -0.45010500       2.63965400       0.01843500
C        0.99654200       2.45238200       0.05441800
C       -0.76903400       0.15867800      -0.04877100
C        0.67752200      -0.02870400      -0.01297900
C        1.52709100       1.12265000       0.03785500
C        2.93347700       0.94084900       0.07277000
C        3.48023700      -0.37253000       0.05696900
C        3.79427800       2.07240500       0.12351100
C        5.26507800       1.88272800       0.16006300
C        1.24802600      -1.29258500      -0.02698300
C        2.64560500      -1.46904700       0.00777700
C        1.86805800       3.52983300       0.10418700
C        3.26457400       3.34539700       0.13880400
C        4.95087500      -0.56291500       0.09346700
N        5.75909100       0.57580800       0.14293500
O        6.06925500       2.83065500       0.20492200
O        5.48910000      -1.68427500       0.08194900
C       -1.02041300       3.90352800       0.03216900
C       -2.41794600       4.08003500      -0.00262400
C       -2.70602800       1.67000700      -0.06716000
C       -3.25245200       2.98347100      -0.05156500
C       -3.56691500       0.53850500      -0.11766500
C       -3.03687800      -0.73433100      -0.13279200
C       -1.64041100      -0.91883000      -0.09829200
C       -4.72314700       3.17392200      -0.08803700
C       -5.03773600       0.72818300      -0.15412500
N       -5.53143900       2.03522700      -0.13722100
O       -5.26133100       4.29529300      -0.07673500
O       -5.84203300      -0.21964700      -0.19870900
H        0.62972700      -2.20233100      -0.06573200
H        3.07286500      -2.48716200      -0.00439800
H        1.49989900       4.56697900       0.11841200
H        3.93550500       4.22152900       0.17822500
H        6.75033500       0.44779700       0.16755800
H       -0.40199700       4.81321100       0.07071000
H       -2.84532000       5.09816700       0.00933800
H       -3.70773700      -1.61056600      -0.17200800
H       -1.27202900      -1.95588300      -0.11238600
H       -6.52266300       2.16338500      -0.16179200
C        7.09429856       3.29517951       7.37132032
C        6.23230127       4.43810979       7.34631366
C        5.96622187       5.15298925       8.59021970
C        7.70231910       2.83460655       8.58296204
C        7.43647479       3.54947554       9.82682958
C        6.57437390       4.69233268       9.80178497
C        6.31561337       5.38750596      11.01090421
C        6.91051946       4.94547972      12.22534240
C        5.46166372       6.52536479      11.00651636
C        5.19077746       7.25262082      12.27074947
C        7.99762010       3.14933602      11.03018755
C        7.73815786       3.84258369      12.22921265
C        5.13979999       6.26592201       8.62662425
C        4.88501234       6.95395279       9.82960754
C        6.64009744       5.67225623      13.48986702
N        5.79559694       6.78432085      13.44005295
O        4.45408441       8.25302199      12.33206369
O        7.12973828       5.33544991      14.58260689
C        5.67133212       4.83851121       6.14306405
C        5.93078595       4.14533533       4.94404167
C        7.35308157       2.59995651       6.16234811
C        6.75821745       3.04234445       4.94808304
C        8.20683141       1.46194666       6.16667869
C        8.78318645       1.03355147       7.34378190
C        8.52853887       1.72158235       8.54674422
C        7.02859611       2.31555876       3.68347895
C        8.47764769       0.73462733       4.90244508
N        7.87286973       1.20330679       3.73326777
O        6.53911431       2.65251670       2.59072574
O        9.21409411      -0.26594138       4.84102819
H        8.66527671       2.27645684      11.09142074
H        8.19846279       3.50188560      13.17330040
H        4.65373269       6.65114750       7.71736349
H        4.22267772       7.83748125       9.82968300
H        5.61313892       7.27435588      14.29218705
H        5.00385031       5.71153852       6.08192267
H        5.47067063       4.48609634       3.99981701
H        9.44539425       0.14988961       7.34386116
H        9.01439789       1.33646812       9.45614562
H        8.05520158       0.71334046       2.88106983
