80
Dimer: struct; Energy: -4906.06228 eV
C       -1.29972200       1.48833600      -0.03228100
C       -0.45010500       2.63965400       0.01843500
C        0.99654200       2.45238200       0.05441800
C       -0.76903400       0.15867800      -0.04877100
C        0.67752200      -0.02870400      -0.01297900
C        1.52709100       1.12265000       0.03785500
C        2.93347700       0.94084900       0.07277000
C        3.48023700      -0.37253000       0.05696900
C        3.79427800       2.07240500       0.12351100
C        5.26507800       1.88272800       0.16006300
C        1.24802600      -1.29258500      -0.02698300
C        2.64560500      -1.46904700       0.00777700
C        1.86805800       3.52983300       0.10418700
C        3.26457400       3.34539700       0.13880400
C        4.95087500      -0.56291500       0.09346700
N        5.75909100       0.57580800       0.14293500
O        6.06925500       2.83065500       0.20492200
O        5.48910000      -1.68427500       0.08194900
C       -1.02041300       3.90352800       0.03216900
C       -2.41794600       4.08003500      -0.00262400
C       -2.70602800       1.67000700      -0.06716000
C       -3.25245200       2.98347100      -0.05156500
C       -3.56691500       0.53850500      -0.11766500
C       -3.03687800      -0.73433100      -0.13279200
C       -1.64041100      -0.91883000      -0.09829200
C       -4.72314700       3.17392200      -0.08803700
C       -5.03773600       0.72818300      -0.15412500
N       -5.53143900       2.03522700      -0.13722100
O       -5.26133100       4.29529300      -0.07673500
O       -5.84203300      -0.21964700      -0.19870900
H        0.62972700      -2.20233100      -0.06573200
H        3.07286500      -2.48716200      -0.00439800
H        1.49989900       4.56697900       0.11841200
H        3.93550500       4.22152900       0.17822500
H        6.75033500       0.44779700       0.16755800
H       -0.40199700       4.81321100       0.07071000
H       -2.84532000       5.09816700       0.00933800
H       -3.70773700      -1.61056600      -0.17200800
H       -1.27202900      -1.95588300      -0.11238600
H       -6.52266300       2.16338500      -0.16179200
C        7.88738401       5.31962360       5.19553029
C        7.50503461       4.12226685       4.50989187
C        7.45667711       2.86580453       5.25024118
C        8.22338808       5.31803687       6.58728847
C        8.17489155       4.06173644       7.32774418
C        7.79264776       2.86438599       6.64202618
C        7.74549448       1.64281238       7.36155848
C        8.07567517       1.62060830       8.74526663
C        7.36807782       0.44237645       6.69787013
C        7.31866427      -0.83531637       7.44995087
C        8.48950053       3.99976591       8.67690946
C        8.44143070       2.78431914       9.38821291
C        7.09369413       1.67526541       4.63886754
C        7.04800600       0.46368132       5.35681496
C        8.02644043       0.34332853       9.49791994
N        7.65070575      -0.81157207       8.80699426
O        6.99673266      -1.91701579       6.92691647
O        8.30334838       0.25899242      10.70766226
C        7.19015289       4.18411748       3.16087692
C        7.23817338       5.39951306       2.44956027
C        7.93460309       6.54116368       4.47613634
C        7.60416901       6.56307416       3.09253838
C        8.31223544       7.74160958       5.13968545
C        8.63238537       7.71991125       6.48069728
C        8.58661010       6.50841862       7.19870873
C        7.65341389       7.84037669       2.33979755
C        8.36173794       9.01930208       4.38757319
N        8.02941669       8.99527755       3.03059942
O        7.37629386       7.92471628       1.13011412
O        8.68391246      10.10101887       4.91040727
H        8.78777722       4.89734598       9.23977175
H        8.69712365       2.76398105      10.46220778
H        6.82849464       1.63456281       3.57142773
H        6.75548271      -0.46984741       4.84469784
H        7.61744697      -1.67260527       9.31401838
H        6.89168681       3.28649668       2.59816758
H        6.98228429       5.41999289       1.37555573
H        8.92512729       8.65336902       6.99288497
H        8.85188418       6.54885776       8.26612487
H        8.06267833       9.85622895       2.52344108
