80
Dimer: struct; Energy: -4906.06228 eV
C       -1.29972200       1.48833600      -0.03228100
C       -0.45010500       2.63965400       0.01843500
C        0.99654200       2.45238200       0.05441800
C       -0.76903400       0.15867800      -0.04877100
C        0.67752200      -0.02870400      -0.01297900
C        1.52709100       1.12265000       0.03785500
C        2.93347700       0.94084900       0.07277000
C        3.48023700      -0.37253000       0.05696900
C        3.79427800       2.07240500       0.12351100
C        5.26507800       1.88272800       0.16006300
C        1.24802600      -1.29258500      -0.02698300
C        2.64560500      -1.46904700       0.00777700
C        1.86805800       3.52983300       0.10418700
C        3.26457400       3.34539700       0.13880400
C        4.95087500      -0.56291500       0.09346700
N        5.75909100       0.57580800       0.14293500
O        6.06925500       2.83065500       0.20492200
O        5.48910000      -1.68427500       0.08194900
C       -1.02041300       3.90352800       0.03216900
C       -2.41794600       4.08003500      -0.00262400
C       -2.70602800       1.67000700      -0.06716000
C       -3.25245200       2.98347100      -0.05156500
C       -3.56691500       0.53850500      -0.11766500
C       -3.03687800      -0.73433100      -0.13279200
C       -1.64041100      -0.91883000      -0.09829200
C       -4.72314700       3.17392200      -0.08803700
C       -5.03773600       0.72818300      -0.15412500
N       -5.53143900       2.03522700      -0.13722100
O       -5.26133100       4.29529300      -0.07673500
O       -5.84203300      -0.21964700      -0.19870900
H        0.62972700      -2.20233100      -0.06573200
H        3.07286500      -2.48716200      -0.00439800
H        1.49989900       4.56697900       0.11841200
H        3.93550500       4.22152900       0.17822500
H        6.75033500       0.44779700       0.16755800
H       -0.40199700       4.81321100       0.07071000
H       -2.84532000       5.09816700       0.00933800
H       -3.70773700      -1.61056600      -0.17200800
H       -1.27202900      -1.95588300      -0.11238600
H       -6.52266300       2.16338500      -0.16179200
C        6.58926326       6.37469773       4.05603952
C        7.28258962       5.44625669       4.89702114
C        7.15960105       5.57285118       6.34546885
C        5.77870429       7.42358686       4.59707354
C        5.65549928       7.55016105       6.04542323
C        6.34894359       6.62176172       6.88636157
C        6.22947640       6.74458434       8.29449311
C        5.42858024       7.78020026       8.85147208
C        6.91087856       5.83178614       9.14682083
C        6.78623524       5.95989188      10.61944400
C        4.88447178       8.54604237       6.62577063
C        4.76827407       8.66473577       8.02505049
C        7.80809305       4.70290245       7.20892996
C        7.68712187       4.82799517       8.60721094
C        5.30348167       7.90885208      10.32393727
N        5.98959421       6.99118180      11.12361289
O        7.35655150       5.19396238      11.41654496
O        4.61920210       8.79194647      10.87090421
C        8.05338907       4.45021626       4.31685824
C        8.16958523       4.33146562       2.91762256
C        6.70868079       6.25199885       2.64799055
C        7.50945066       5.21618253       2.09133784
C        6.02750364       7.16489468       1.79558639
C        5.25147658       8.16864637       2.33553462
C        5.13037521       8.29372290       3.73376226
C        7.63461071       5.08749441       0.61881623
C        6.15222252       7.03684283       0.32294610
N        6.94874641       6.00531123      -0.18092359
O        8.31872096       4.20426299       0.07188105
O        5.58218907       7.80285917      -0.47426399
H        4.33615354       9.27876739       6.01430184
H        4.14738982       9.46746689       8.46023206
H        8.44011039       3.88410311       6.83271598
H        8.21469177       4.12117859       9.27158284
H        5.90547705       7.07765624      12.11608670
H        8.60149874       3.71741634       4.92843570
H        8.79031060       3.52859930       2.48231797
H        4.72400975       8.87566435       1.67124418
H        4.49851197       9.11251685       4.11020374
H        7.03299146       5.91874778      -1.17337650
