80
Dimer: struct; Energy: -4906.06228 eV
C       -1.29972200       1.48833600      -0.03228100
C       -0.45010500       2.63965400       0.01843500
C        0.99654200       2.45238200       0.05441800
C       -0.76903400       0.15867800      -0.04877100
C        0.67752200      -0.02870400      -0.01297900
C        1.52709100       1.12265000       0.03785500
C        2.93347700       0.94084900       0.07277000
C        3.48023700      -0.37253000       0.05696900
C        3.79427800       2.07240500       0.12351100
C        5.26507800       1.88272800       0.16006300
C        1.24802600      -1.29258500      -0.02698300
C        2.64560500      -1.46904700       0.00777700
C        1.86805800       3.52983300       0.10418700
C        3.26457400       3.34539700       0.13880400
C        4.95087500      -0.56291500       0.09346700
N        5.75909100       0.57580800       0.14293500
O        6.06925500       2.83065500       0.20492200
O        5.48910000      -1.68427500       0.08194900
C       -1.02041300       3.90352800       0.03216900
C       -2.41794600       4.08003500      -0.00262400
C       -2.70602800       1.67000700      -0.06716000
C       -3.25245200       2.98347100      -0.05156500
C       -3.56691500       0.53850500      -0.11766500
C       -3.03687800      -0.73433100      -0.13279200
C       -1.64041100      -0.91883000      -0.09829200
C       -4.72314700       3.17392200      -0.08803700
C       -5.03773600       0.72818300      -0.15412500
N       -5.53143900       2.03522700      -0.13722100
O       -5.26133100       4.29529300      -0.07673500
O       -5.84203300      -0.21964700      -0.19870900
H        0.62972700      -2.20233100      -0.06573200
H        3.07286500      -2.48716200      -0.00439800
H        1.49989900       4.56697900       0.11841200
H        3.93550500       4.22152900       0.17822500
H        6.75033500       0.44779700       0.16755800
H       -0.40199700       4.81321100       0.07071000
H       -2.84532000       5.09816700       0.00933800
H       -3.70773700      -1.61056600      -0.17200800
H       -1.27202900      -1.95588300      -0.11238600
H       -6.52266300       2.16338500      -0.16179200
C        5.31039143      -0.52428918       4.59873474
C        5.96141165      -1.79820472       4.54158428
C        7.15581221      -1.94782115       3.71685685
C        5.79904685       0.60658058       3.86918589
C        6.99347909       0.45714101       3.04461523
C        7.64439351      -0.81683132       2.98740906
C        8.80558271      -0.96250681       2.18577914
C        9.30685087       0.14947689       1.45339738
C        9.46647266      -2.22040779       2.11591091
C       10.68081260      -2.37318694       1.27769667
C        7.51226283       1.51724167       2.31652448
C        8.66603160       1.36853845       1.52136466
C        7.82765868      -3.15725730       3.62302571
C        8.98083385      -3.29824395       2.82566650
C       10.52110423      -0.00259066       0.61505443
N       11.13854930      -1.25539899       0.57526568
O       11.30258736      -3.44566793       1.17542615
O       11.00767942       0.93074779      -0.04781131
C        5.44293999      -2.85826451       5.26978596
C        4.28922654      -2.70960390       6.06496460
C        4.14925287      -0.37851994       5.40024958
C        3.64837620      -1.49059732       6.13265422
C        3.48816015       0.87928209       5.46999492
C        3.97398200       1.95685299       4.75999660
C        5.12718209       1.81596913       3.96273159
C        2.43405914      -1.33858641       6.97102904
C        2.27375218       1.03203867       6.30814778
N        1.81639405      -0.08586860       7.01064283
O        1.94763638      -2.27188252       7.63404785
O        1.65172368       2.10437683       6.41029726
H        7.04145083       2.51196147       2.33388803
H        9.05742501       2.22977083       0.95184953
H        7.48401892      -4.04967878       4.16792096
H        9.49617732      -4.27320312       2.76922680
H       11.95696330      -1.35819458       0.01029722
H        5.91396555      -3.85289167       5.25250444
H        3.89785421      -3.57076672       6.63471075
H        3.45858908       2.93183430       4.81620203
H        5.47093386       2.70821803       3.41765410
H        0.99796426       0.01677059       7.57561283
