80
Dimer: struct; Energy: -4906.06228 eV
C       -1.29972200       1.48833600      -0.03228100
C       -0.45010500       2.63965400       0.01843500
C        0.99654200       2.45238200       0.05441800
C       -0.76903400       0.15867800      -0.04877100
C        0.67752200      -0.02870400      -0.01297900
C        1.52709100       1.12265000       0.03785500
C        2.93347700       0.94084900       0.07277000
C        3.48023700      -0.37253000       0.05696900
C        3.79427800       2.07240500       0.12351100
C        5.26507800       1.88272800       0.16006300
C        1.24802600      -1.29258500      -0.02698300
C        2.64560500      -1.46904700       0.00777700
C        1.86805800       3.52983300       0.10418700
C        3.26457400       3.34539700       0.13880400
C        4.95087500      -0.56291500       0.09346700
N        5.75909100       0.57580800       0.14293500
O        6.06925500       2.83065500       0.20492200
O        5.48910000      -1.68427500       0.08194900
C       -1.02041300       3.90352800       0.03216900
C       -2.41794600       4.08003500      -0.00262400
C       -2.70602800       1.67000700      -0.06716000
C       -3.25245200       2.98347100      -0.05156500
C       -3.56691500       0.53850500      -0.11766500
C       -3.03687800      -0.73433100      -0.13279200
C       -1.64041100      -0.91883000      -0.09829200
C       -4.72314700       3.17392200      -0.08803700
C       -5.03773600       0.72818300      -0.15412500
N       -5.53143900       2.03522700      -0.13722100
O       -5.26133100       4.29529300      -0.07673500
O       -5.84203300      -0.21964700      -0.19870900
H        0.62972700      -2.20233100      -0.06573200
H        3.07286500      -2.48716200      -0.00439800
H        1.49989900       4.56697900       0.11841200
H        3.93550500       4.22152900       0.17822500
H        6.75033500       0.44779700       0.16755800
H       -0.40199700       4.81321100       0.07071000
H       -2.84532000       5.09816700       0.00933800
H       -3.70773700      -1.61056600      -0.17200800
H       -1.27202900      -1.95588300      -0.11238600
H       -6.52266300       2.16338500      -0.16179200
C        9.43554232       2.20603465       7.01476065
C        9.81988326       3.57197731       6.82387583
C       10.00683936       4.07295047       5.46622108
C        9.22954698       1.31840997       5.91041450
C        9.41628412       1.81929153       4.55278265
C        9.80074053       3.18521521       4.36195972
C        9.98247932       3.67248314       3.04221231
C        9.78241982       2.80605718       1.93160761
C       10.36445070       5.02669618       2.83202930
C       10.55463794       5.53665808       1.45205331
C        9.23071029       1.00576416       3.44517186
C        9.41219141       1.49355805       2.13570789
C       10.37871865       5.38608053       5.22063404
C       10.55836842       5.86659672       3.90826897
C        9.97239550       3.31535124       0.55143245
N       10.34767520       4.65165360       0.39077314
O       10.88773158       6.70900434       1.20319305
O        9.81280533       2.60818398      -0.45936550
C       10.00521878       4.38565243       7.93130568
C        9.82372035       3.89792602       9.24075022
C        9.25382362       1.71868417       8.33437623
C        9.45374319       2.58538642       9.44472278
C        8.87208099       0.36442242       8.54466560
C        8.67839842      -0.47522935       7.46821240
C        8.85791579       0.00523760       6.15585755
C        9.26379823       2.07611634      10.82498017
C        8.68198064      -0.14556982       9.92466244
N        8.88879017       0.73973646      10.98572560
O        9.42318590       2.78336241      11.83574287
O        8.34915760      -1.31795287      10.17368034
H        8.93521258      -0.04933111       3.54951740
H        9.25762482       0.82348036       1.27178512
H       10.54668621       6.09930689       6.04191978
H       10.85482611       6.91714808       3.74164252
H       10.47580605       4.99519190      -0.53934605
H       10.30051726       5.44079653       7.82682287
H        9.97806833       4.56801521      10.10477659
H        8.38212933      -1.52588333       7.63473060
H        8.69012275      -0.70783661       5.33442373
H        8.76074113       0.39632099      11.91589896
