80
Dimer: struct; Energy: -4906.06228 eV
C       -1.29972200       1.48833600      -0.03228100
C       -0.45010500       2.63965400       0.01843500
C        0.99654200       2.45238200       0.05441800
C       -0.76903400       0.15867800      -0.04877100
C        0.67752200      -0.02870400      -0.01297900
C        1.52709100       1.12265000       0.03785500
C        2.93347700       0.94084900       0.07277000
C        3.48023700      -0.37253000       0.05696900
C        3.79427800       2.07240500       0.12351100
C        5.26507800       1.88272800       0.16006300
C        1.24802600      -1.29258500      -0.02698300
C        2.64560500      -1.46904700       0.00777700
C        1.86805800       3.52983300       0.10418700
C        3.26457400       3.34539700       0.13880400
C        4.95087500      -0.56291500       0.09346700
N        5.75909100       0.57580800       0.14293500
O        6.06925500       2.83065500       0.20492200
O        5.48910000      -1.68427500       0.08194900
C       -1.02041300       3.90352800       0.03216900
C       -2.41794600       4.08003500      -0.00262400
C       -2.70602800       1.67000700      -0.06716000
C       -3.25245200       2.98347100      -0.05156500
C       -3.56691500       0.53850500      -0.11766500
C       -3.03687800      -0.73433100      -0.13279200
C       -1.64041100      -0.91883000      -0.09829200
C       -4.72314700       3.17392200      -0.08803700
C       -5.03773600       0.72818300      -0.15412500
N       -5.53143900       2.03522700      -0.13722100
O       -5.26133100       4.29529300      -0.07673500
O       -5.84203300      -0.21964700      -0.19870900
H        0.62972700      -2.20233100      -0.06573200
H        3.07286500      -2.48716200      -0.00439800
H        1.49989900       4.56697900       0.11841200
H        3.93550500       4.22152900       0.17822500
H        6.75033500       0.44779700       0.16755800
H       -0.40199700       4.81321100       0.07071000
H       -2.84532000       5.09816700       0.00933800
H       -3.70773700      -1.61056600      -0.17200800
H       -1.27202900      -1.95588300      -0.11238600
H       -6.52266300       2.16338500      -0.16179200
C        4.29053180       2.76888398       6.11506002
C        3.42421376       3.82511464       6.54380720
C        2.44618463       3.55819726       7.59326766
C        4.22367251       1.45833565       6.68767245
C        3.24586216       1.19136391       7.73721061
C        2.37948739       2.24760277       8.16583847
C        1.42866784       1.98838101       9.18610240
C        1.34679179       0.69255856       9.76773895
C        0.55890492       3.02489181       9.62556775
C       -0.43558645       2.75422408      10.69247541
C        3.13578469      -0.05827483       8.32827075
C        2.18997135      -0.31182504       9.34154444
C        1.58138031       4.54203290       8.04834860
C        0.63811183       4.28085969       9.06200783
C        0.35260148       0.42122781      10.83465973
N       -0.48171219       1.46778035      11.23590620
O       -1.22287517       3.61753631      11.11926229
O        0.23229761      -0.68942263      11.38169688
C        3.53434565       5.07480295       5.95307256
C        4.48014065       5.32840241       4.93984854
C        5.24129939       3.02796682       5.09484704
C        5.32306950       4.32390458       4.51358202
C        6.11094587       1.99145448       4.65515268
C        6.03136146       0.73557880       5.21882114
C        5.08822143       0.47437616       6.23253228
C        6.31726669       4.59529580       3.44659357
C        7.10538756       2.26210154       3.58816750
N        7.15142930       3.54870416       3.04509636
O        6.43769004       5.70600810       2.89973065
O        7.89254684       1.39882154       3.16109489
H        3.78298320      -0.89603030       8.02705193
H        2.12410356      -1.31653021       9.79485057
H        1.60114841       5.56150461       7.63397933
H       -0.03846062       5.08313216       9.40540020
H       -1.15190238       1.28519430      11.95497868
H        2.88722480       5.91254268       6.25452514
H        4.54623096       6.33318275       4.48660144
H        6.70776428      -0.06684783       4.87535613
H        5.06818923      -0.54504980       6.64696235
H        7.82153802       3.73141851       2.32598371
