80
Dimer: struct; Energy: -4906.06228 eV
C       -1.29972200       1.48833600      -0.03228100
C       -0.45010500       2.63965400       0.01843500
C        0.99654200       2.45238200       0.05441800
C       -0.76903400       0.15867800      -0.04877100
C        0.67752200      -0.02870400      -0.01297900
C        1.52709100       1.12265000       0.03785500
C        2.93347700       0.94084900       0.07277000
C        3.48023700      -0.37253000       0.05696900
C        3.79427800       2.07240500       0.12351100
C        5.26507800       1.88272800       0.16006300
C        1.24802600      -1.29258500      -0.02698300
C        2.64560500      -1.46904700       0.00777700
C        1.86805800       3.52983300       0.10418700
C        3.26457400       3.34539700       0.13880400
C        4.95087500      -0.56291500       0.09346700
N        5.75909100       0.57580800       0.14293500
O        6.06925500       2.83065500       0.20492200
O        5.48910000      -1.68427500       0.08194900
C       -1.02041300       3.90352800       0.03216900
C       -2.41794600       4.08003500      -0.00262400
C       -2.70602800       1.67000700      -0.06716000
C       -3.25245200       2.98347100      -0.05156500
C       -3.56691500       0.53850500      -0.11766500
C       -3.03687800      -0.73433100      -0.13279200
C       -1.64041100      -0.91883000      -0.09829200
C       -4.72314700       3.17392200      -0.08803700
C       -5.03773600       0.72818300      -0.15412500
N       -5.53143900       2.03522700      -0.13722100
O       -5.26133100       4.29529300      -0.07673500
O       -5.84203300      -0.21964700      -0.19870900
H        0.62972700      -2.20233100      -0.06573200
H        3.07286500      -2.48716200      -0.00439800
H        1.49989900       4.56697900       0.11841200
H        3.93550500       4.22152900       0.17822500
H        6.75033500       0.44779700       0.16755800
H       -0.40199700       4.81321100       0.07071000
H       -2.84532000       5.09816700       0.00933800
H       -3.70773700      -1.61056600      -0.17200800
H       -1.27202900      -1.95588300      -0.11238600
H       -6.52266300       2.16338500      -0.16179200
C        4.80646039       4.87341252       6.45484348
C        4.83289248       5.65926451       5.25831004
C        4.65340962       7.10413061       5.35475165
C        4.60892590       5.46615950       7.74306831
C        4.42962531       6.91095743       7.83964774
C        4.45594935       7.69674937       6.64306691
C        4.28156049       9.10139766       6.73657600
C        4.08409080       9.70929659       8.00764845
C        4.30451633       9.89931476       5.55896260
C        4.12216041      11.36827260       5.65630336
C        4.23473133       7.53995935       9.06007349
C        4.06190807       8.93560578       9.14882785
C        4.66952755       7.91537113       4.23023096
C        4.49591544       9.31035261       4.32696471
C        3.90171127      11.17813183       8.10570674
N        3.93120262      11.92350840       6.92422704
O        4.13217554      12.11913050       4.66464279
O        3.72523923      11.76801137       9.18652440
C        5.02803616       5.03048211       4.03791299
C        5.20089397       3.63488226       3.94911542
C        4.98079044       3.46884678       6.36145407
C        5.17844671       2.86129653       5.09030311
C        4.95761538       2.67082040       7.53898996
C        4.76604451       3.26009152       8.77079338
C        4.59254405       4.65503774       8.86760681
C        5.36081370       1.39239912       4.99217957
C        5.13988225       1.20183337       7.44163810
N        5.33105154       0.64692015       6.17360102
O        5.53749722       0.80257920       3.91137520
O        5.12961766       0.45082682       8.43317575
H        4.20813449       6.97165315      10.00228026
H        3.90847558       9.41023564      10.13393822
H        4.81846181       7.49844685       3.22255643
H        4.51318933       9.93255946       3.41489566
H        3.80829232      12.91352037       6.99000785
H        5.05482083       5.59892636       3.09578739
H        5.35454860       3.16015727       2.96402110
H        4.74854888       2.63794282       9.68293502
H        4.44347370       5.07216770       9.87516003
H        5.45392756      -0.34308359       6.10766701
