80
Dimer: struct; Energy: -4906.06228 eV
C       -1.29972200       1.48833600      -0.03228100
C       -0.45010500       2.63965400       0.01843500
C        0.99654200       2.45238200       0.05441800
C       -0.76903400       0.15867800      -0.04877100
C        0.67752200      -0.02870400      -0.01297900
C        1.52709100       1.12265000       0.03785500
C        2.93347700       0.94084900       0.07277000
C        3.48023700      -0.37253000       0.05696900
C        3.79427800       2.07240500       0.12351100
C        5.26507800       1.88272800       0.16006300
C        1.24802600      -1.29258500      -0.02698300
C        2.64560500      -1.46904700       0.00777700
C        1.86805800       3.52983300       0.10418700
C        3.26457400       3.34539700       0.13880400
C        4.95087500      -0.56291500       0.09346700
N        5.75909100       0.57580800       0.14293500
O        6.06925500       2.83065500       0.20492200
O        5.48910000      -1.68427500       0.08194900
C       -1.02041300       3.90352800       0.03216900
C       -2.41794600       4.08003500      -0.00262400
C       -2.70602800       1.67000700      -0.06716000
C       -3.25245200       2.98347100      -0.05156500
C       -3.56691500       0.53850500      -0.11766500
C       -3.03687800      -0.73433100      -0.13279200
C       -1.64041100      -0.91883000      -0.09829200
C       -4.72314700       3.17392200      -0.08803700
C       -5.03773600       0.72818300      -0.15412500
N       -5.53143900       2.03522700      -0.13722100
O       -5.26133100       4.29529300      -0.07673500
O       -5.84203300      -0.21964700      -0.19870900
H        0.62972700      -2.20233100      -0.06573200
H        3.07286500      -2.48716200      -0.00439800
H        1.49989900       4.56697900       0.11841200
H        3.93550500       4.22152900       0.17822500
H        6.75033500       0.44779700       0.16755800
H       -0.40199700       4.81321100       0.07071000
H       -2.84532000       5.09816700       0.00933800
H       -3.70773700      -1.61056600      -0.17200800
H       -1.27202900      -1.95588300      -0.11238600
H       -6.52266300       2.16338500      -0.16179200
C        8.55205539       4.23012152       1.16499737
C        8.05514104       3.81936355       2.44339806
C        7.75859758       4.83467650       3.44856207
C        8.76583136       5.60936432       0.84580900
C        8.46916601       6.62472326       1.85077330
C        7.97236334       6.21389977       3.12920154
C        7.68393943       7.20075404       4.10650525
C        7.88959224       8.57662772       3.80844632
C        7.18958184       6.81245592       5.38275253
C        6.88785768       7.84414750       6.40507394
C        8.65647446       7.97528878       1.59788118
C        8.36874961       8.95261180       2.57134319
C        7.27553162       4.49598987       4.70349489
C        6.99016843       5.47903831       5.67182104
C        7.58805746       9.60878986       4.83024511
N        7.10441155       9.18329652       6.07016136
O        6.45397655       7.56857407       7.53780737
O        7.74662309      10.82624210       4.63041008
C        7.86753340       2.46893961       2.69633262
C        8.15520313       1.49161060       1.72291704
C        8.84052753       3.24341642       0.18769786
C        8.63457217       1.86769073       0.48597842
C        9.33511083       3.63160386      -1.08849642
C        9.53454641       4.96508581      -1.37716724
C        9.24910555       5.94816298      -0.40895600
C        8.93612768       0.83544001      -0.53581818
C        9.63692523       2.59989262      -2.11079847
N        9.42004822       1.26084613      -1.77566974
O        8.77734864      -0.38198171      -0.33602772
O       10.07106514       2.87529804      -3.24346678
H        9.03635031       8.33162032       0.62826522
H        8.52733510      10.02121925       2.34290011
H        7.09796128       3.44756159       4.98754091
H        6.60635383       5.18104477       6.66338340
H        6.90110408       9.87874681       6.75905376
H        7.48745202       2.11274265       3.66592469
H        7.99644625       0.42293562       1.95120290
H        9.91855996       5.26319073      -2.36865326
H        9.42671224       6.99664215      -0.69273438
H        9.62335764       0.56528718      -2.46444855
