80
Dimer: struct; Energy: -4906.06228 eV
C       -1.29972200       1.48833600      -0.03228100
C       -0.45010500       2.63965400       0.01843500
C        0.99654200       2.45238200       0.05441800
C       -0.76903400       0.15867800      -0.04877100
C        0.67752200      -0.02870400      -0.01297900
C        1.52709100       1.12265000       0.03785500
C        2.93347700       0.94084900       0.07277000
C        3.48023700      -0.37253000       0.05696900
C        3.79427800       2.07240500       0.12351100
C        5.26507800       1.88272800       0.16006300
C        1.24802600      -1.29258500      -0.02698300
C        2.64560500      -1.46904700       0.00777700
C        1.86805800       3.52983300       0.10418700
C        3.26457400       3.34539700       0.13880400
C        4.95087500      -0.56291500       0.09346700
N        5.75909100       0.57580800       0.14293500
O        6.06925500       2.83065500       0.20492200
O        5.48910000      -1.68427500       0.08194900
C       -1.02041300       3.90352800       0.03216900
C       -2.41794600       4.08003500      -0.00262400
C       -2.70602800       1.67000700      -0.06716000
C       -3.25245200       2.98347100      -0.05156500
C       -3.56691500       0.53850500      -0.11766500
C       -3.03687800      -0.73433100      -0.13279200
C       -1.64041100      -0.91883000      -0.09829200
C       -4.72314700       3.17392200      -0.08803700
C       -5.03773600       0.72818300      -0.15412500
N       -5.53143900       2.03522700      -0.13722100
O       -5.26133100       4.29529300      -0.07673500
O       -5.84203300      -0.21964700      -0.19870900
H        0.62972700      -2.20233100      -0.06573200
H        3.07286500      -2.48716200      -0.00439800
H        1.49989900       4.56697900       0.11841200
H        3.93550500       4.22152900       0.17822500
H        6.75033500       0.44779700       0.16755800
H       -0.40199700       4.81321100       0.07071000
H       -2.84532000       5.09816700       0.00933800
H       -3.70773700      -1.61056600      -0.17200800
H       -1.27202900      -1.95588300      -0.11238600
H       -6.52266300       2.16338500      -0.16179200
C       10.64637766       2.66976159       4.10254783
C        9.96426113       2.90983639       2.86681508
C        9.27527191       4.18133145       2.67252848
C       10.67112386       3.64277768       5.15255706
C        9.98236344       4.91431228       4.95832473
C        9.30016207       5.15428792       3.72261417
C        8.63035282       6.39032006       3.53347836
C        8.64352626       7.37014076       4.56495227
C        7.94678810       6.64751473       2.31259255
C        7.24617842       7.93996707       2.11440307
C        9.97268596       5.89389383       5.93985030
C        9.30617685       7.12051161       5.74815108
C        8.59820310       4.46912179       1.49708291
C        7.93392181       5.69803578       1.31276606
C        7.94318216       8.66275603       4.36742107
N        7.28456012       8.87357782       3.15328704
O        6.63158618       8.22410124       1.07093638
O        7.91840661       9.55837675       5.23027492
C        9.97407624       1.93052429       1.88514874
C       10.64058240       0.70393990       2.07678387
C       11.31614370       1.43383385       4.29179241
C       11.30296753       0.45433941       3.26008165
C       11.99953752       1.17645629       5.51273616
C       12.01207075       2.12608981       6.51239542
C       11.34792551       3.35503195       6.32810613
C       12.00330364      -0.83835941       3.45757765
C       12.70007856      -0.11604897       5.71096298
N       12.66171420      -1.04936371       4.67180747
O       12.02824166      -1.73386807       2.59462631
O       13.31447436      -0.40042619       6.75447173
H       10.48503513       5.74811880       6.90301222
H        9.31468178       7.88289143       6.54687642
H        8.55571980       3.74798649       0.66667682
H        7.40240893       5.90083970       0.36636533
H        6.81243023       9.74469894       3.01987362
H        9.46186096       2.07650106       0.92193889
H       10.63231072      -0.05846118       1.27799693
H       12.54339461       1.92330879       7.45894298
H       11.39017114       4.07626773       7.15841759
H       13.13376068      -1.92054557       4.80510229
