80
Dimer: struct; Energy: -4906.06228 eV
C       -1.29972200       1.48833600      -0.03228100
C       -0.45010500       2.63965400       0.01843500
C        0.99654200       2.45238200       0.05441800
C       -0.76903400       0.15867800      -0.04877100
C        0.67752200      -0.02870400      -0.01297900
C        1.52709100       1.12265000       0.03785500
C        2.93347700       0.94084900       0.07277000
C        3.48023700      -0.37253000       0.05696900
C        3.79427800       2.07240500       0.12351100
C        5.26507800       1.88272800       0.16006300
C        1.24802600      -1.29258500      -0.02698300
C        2.64560500      -1.46904700       0.00777700
C        1.86805800       3.52983300       0.10418700
C        3.26457400       3.34539700       0.13880400
C        4.95087500      -0.56291500       0.09346700
N        5.75909100       0.57580800       0.14293500
O        6.06925500       2.83065500       0.20492200
O        5.48910000      -1.68427500       0.08194900
C       -1.02041300       3.90352800       0.03216900
C       -2.41794600       4.08003500      -0.00262400
C       -2.70602800       1.67000700      -0.06716000
C       -3.25245200       2.98347100      -0.05156500
C       -3.56691500       0.53850500      -0.11766500
C       -3.03687800      -0.73433100      -0.13279200
C       -1.64041100      -0.91883000      -0.09829200
C       -4.72314700       3.17392200      -0.08803700
C       -5.03773600       0.72818300      -0.15412500
N       -5.53143900       2.03522700      -0.13722100
O       -5.26133100       4.29529300      -0.07673500
O       -5.84203300      -0.21964700      -0.19870900
H        0.62972700      -2.20233100      -0.06573200
H        3.07286500      -2.48716200      -0.00439800
H        1.49989900       4.56697900       0.11841200
H        3.93550500       4.22152900       0.17822500
H        6.75033500       0.44779700       0.16755800
H       -0.40199700       4.81321100       0.07071000
H       -2.84532000       5.09816700       0.00933800
H       -3.70773700      -1.61056600      -0.17200800
H       -1.27202900      -1.95588300      -0.11238600
H       -6.52266300       2.16338500      -0.16179200
C        8.16044055       2.81850414       3.05255187
C        7.88922271       2.79847296       4.45825238
C        7.65246329       4.05968929       5.15282525
C        8.20560898       4.04169593       2.30981792
C        7.96869681       5.30289019       3.00420902
C        7.69759872       5.28280952       4.40993666
C        7.46733078       6.50876288       5.08536784
C        7.50780779       7.73488084       4.36484240
C        7.19637284       6.50954356       6.48198990
C        6.95553764       7.79137745       7.18871921
C        7.99975315       6.51799814       2.33666555
C        7.77045317       7.73373784       3.01118215
C        7.38527391       4.10160772       6.51288791
C        7.15706943       5.32131954       7.18049385
C        7.26704359       9.01701032       5.07090988
N        7.00467980       8.97173166       6.44257505
O        6.71386207       7.85796806       8.40709402
O        7.28892902      10.12054053       4.49731667
C        7.85786517       1.58350084       5.12584266
C        8.08711798       0.36776744       4.45138051
C        8.39074366       1.59269589       2.37707272
C        8.34998722       0.36677443       3.09781231
C        8.66194134       1.59183502       0.98049653
C        8.70131792       2.78024258       0.28234434
C        8.47301793       3.99994357       0.94984627
C        8.59077989      -0.91543783       2.39176969
C        8.90286999       0.30999191       0.27377657
N        8.85343127      -0.87021152       1.02014651
O        8.56867504      -2.01896105       2.96534666
O        9.14482461       0.24327158      -0.94452941
H        8.20451136       6.57592051       1.25678037
H        7.80120357       8.68692068       2.45462633
H        7.34201058       3.18385346       7.11891647
H        6.94649751       5.32544668       8.26444595
H        6.84238109       9.83572916       6.91873177
H        7.65288922       1.52569108       6.20569904
H        8.05618198      -0.58553444       5.00783616
H        8.91208724       2.77625260      -0.80160116
H        8.51635098       4.91782942       0.34404871
H        9.01575761      -1.73427764       0.54412850
