80
Dimer: struct; Energy: -4906.06228 eV
C       -1.29972200       1.48833600      -0.03228100
C       -0.45010500       2.63965400       0.01843500
C        0.99654200       2.45238200       0.05441800
C       -0.76903400       0.15867800      -0.04877100
C        0.67752200      -0.02870400      -0.01297900
C        1.52709100       1.12265000       0.03785500
C        2.93347700       0.94084900       0.07277000
C        3.48023700      -0.37253000       0.05696900
C        3.79427800       2.07240500       0.12351100
C        5.26507800       1.88272800       0.16006300
C        1.24802600      -1.29258500      -0.02698300
C        2.64560500      -1.46904700       0.00777700
C        1.86805800       3.52983300       0.10418700
C        3.26457400       3.34539700       0.13880400
C        4.95087500      -0.56291500       0.09346700
N        5.75909100       0.57580800       0.14293500
O        6.06925500       2.83065500       0.20492200
O        5.48910000      -1.68427500       0.08194900
C       -1.02041300       3.90352800       0.03216900
C       -2.41794600       4.08003500      -0.00262400
C       -2.70602800       1.67000700      -0.06716000
C       -3.25245200       2.98347100      -0.05156500
C       -3.56691500       0.53850500      -0.11766500
C       -3.03687800      -0.73433100      -0.13279200
C       -1.64041100      -0.91883000      -0.09829200
C       -4.72314700       3.17392200      -0.08803700
C       -5.03773600       0.72818300      -0.15412500
N       -5.53143900       2.03522700      -0.13722100
O       -5.26133100       4.29529300      -0.07673500
O       -5.84203300      -0.21964700      -0.19870900
H        0.62972700      -2.20233100      -0.06573200
H        3.07286500      -2.48716200      -0.00439800
H        1.49989900       4.56697900       0.11841200
H        3.93550500       4.22152900       0.17822500
H        6.75033500       0.44779700       0.16755800
H       -0.40199700       4.81321100       0.07071000
H       -2.84532000       5.09816700       0.00933800
H       -3.70773700      -1.61056600      -0.17200800
H       -1.27202900      -1.95588300      -0.11238600
H       -6.52266300       2.16338500      -0.16179200
C        9.84643337       1.46809828       5.19583820
C       10.00358977       0.73462667       3.97629912
C        9.02318709      -0.29043181       3.63392680
C        8.75397208       1.22356506       6.08837610
C        7.77345926       0.19871505       5.74603937
C        7.93072991      -0.53480935       4.52654132
C        6.97772347      -1.53131557       4.19345525
C        5.88496203      -1.78905059       5.06730057
C        7.11675382      -2.27092775       2.98613740
C        6.12037538      -3.31314127       2.63744408
C        6.69514148      -0.08130463       6.57180317
C        5.75052490      -1.07198372       6.23739532
C        9.12432012      -1.03214064       2.46664025
C        8.17575032      -2.02127317       2.13906725
C        4.88825190      -2.83105013       4.71921931
N        5.06314293      -3.53345811       3.52406810
O        6.18681604      -3.99273291       1.59772324
O        3.91222509      -3.10264703       5.44093521
C       11.08163575       1.01470004       3.15034930
C       12.02623155       2.00536619       3.48468911
C       10.79933608       2.46453427       5.52901864
C       11.89182632       2.72217137       4.65489150
C       10.66051783       3.20403541       6.73642972
C        9.60149455       2.95401600       7.58332967
C        8.65285560       1.96500606       7.25577251
C       12.88862330       3.76418679       5.00295073
C       11.65695982       4.24619860       7.08517136
N       12.71394950       4.46644508       6.19823466
O       13.86451363       4.03590652       4.28111339
O       11.59079789       4.92567176       8.12497997
H        6.53891438       0.46007252       7.51728548
H        4.90135853      -1.27422975       6.91361311
H        9.94891329      -0.87452052       1.75486976
H        8.28072975      -2.59714484       1.20276557
H        4.39152734      -4.23583320       3.28920751
H       11.23764172       0.47339317       2.20478284
H       12.87536222       2.20784126       2.80840118
H        9.49652354       3.52970132       8.51978307
H        7.82824876       1.80712863       7.96744740
H       13.38566456       5.16875650       6.43299149
