80
Dimer: struct; Energy: -4906.06228 eV
C       -1.29972200       1.48833600      -0.03228100
C       -0.45010500       2.63965400       0.01843500
C        0.99654200       2.45238200       0.05441800
C       -0.76903400       0.15867800      -0.04877100
C        0.67752200      -0.02870400      -0.01297900
C        1.52709100       1.12265000       0.03785500
C        2.93347700       0.94084900       0.07277000
C        3.48023700      -0.37253000       0.05696900
C        3.79427800       2.07240500       0.12351100
C        5.26507800       1.88272800       0.16006300
C        1.24802600      -1.29258500      -0.02698300
C        2.64560500      -1.46904700       0.00777700
C        1.86805800       3.52983300       0.10418700
C        3.26457400       3.34539700       0.13880400
C        4.95087500      -0.56291500       0.09346700
N        5.75909100       0.57580800       0.14293500
O        6.06925500       2.83065500       0.20492200
O        5.48910000      -1.68427500       0.08194900
C       -1.02041300       3.90352800       0.03216900
C       -2.41794600       4.08003500      -0.00262400
C       -2.70602800       1.67000700      -0.06716000
C       -3.25245200       2.98347100      -0.05156500
C       -3.56691500       0.53850500      -0.11766500
C       -3.03687800      -0.73433100      -0.13279200
C       -1.64041100      -0.91883000      -0.09829200
C       -4.72314700       3.17392200      -0.08803700
C       -5.03773600       0.72818300      -0.15412500
N       -5.53143900       2.03522700      -0.13722100
O       -5.26133100       4.29529300      -0.07673500
O       -5.84203300      -0.21964700      -0.19870900
H        0.62972700      -2.20233100      -0.06573200
H        3.07286500      -2.48716200      -0.00439800
H        1.49989900       4.56697900       0.11841200
H        3.93550500       4.22152900       0.17822500
H        6.75033500       0.44779700       0.16755800
H       -0.40199700       4.81321100       0.07071000
H       -2.84532000       5.09816700       0.00933800
H       -3.70773700      -1.61056600      -0.17200800
H       -1.27202900      -1.95588300      -0.11238600
H       -6.52266300       2.16338500      -0.16179200
C       14.05341021       4.47879357       1.91730350
C       13.56269445       5.06133327       3.12965652
C       12.24854725       4.66572419       3.62530129
C       13.29037162       3.51892321       1.17817356
C       11.97636171       3.12312117       1.67379039
C       11.48564407       3.70578196       2.88608995
C       10.20816004       3.32129591       3.36816593
C        9.43467515       2.36878598       2.64802253
C        9.70312570       3.88907708       4.57088654
C        8.36721995       3.48729276       5.07535777
C       11.19303499       2.19806275       1.00019385
C        9.92450218       1.81867212       1.48233639
C       11.72203192       5.19651454       4.79318868
C       10.45262466       4.81222916       5.26900572
C        8.09876856       1.96655038       3.15192212
N        7.64157142       2.54896405       4.33687585
O        7.87106541       3.94719100       6.11919821
O        7.37557485       1.13973015       2.56829019
C       14.34596830       5.98614383       3.80347017
C       15.61448622       6.36552835       3.32139813
C       15.33077871       4.86320801       1.43514928
C       16.10408262       5.81554632       2.15560946
C       15.83579643       4.29565559       0.23231291
C       15.08597203       3.37265567      -0.46562265
C       13.81664403       2.98825342       0.01018357
C       17.44004259       6.21785488       1.65172024
C       17.17168016       4.69751385      -0.27221268
N       17.89718727       5.63568745       0.46661216
O       18.16329831       7.04451166       2.23548595
O       17.66784044       4.23790776      -1.31617165
H       11.53419559       1.72756629       0.06548778
H        9.32190913       1.07963315       0.92559542
H       12.27690334       5.93659516       5.38968982
H       10.05768385       5.25101125       6.20217330
H        6.74120256       2.27806147       4.67673683
H       14.00478302       6.45642031       4.73828542
H       16.21727578       7.10444254       3.87820595
H       15.48073621       2.93394717      -1.39893587
H       13.26154327       2.24828235      -0.58621296
H       18.79755018       5.90671715       0.12684349
