80
Dimer: struct; Energy: -4906.06228 eV
C       -1.29972200       1.48833600      -0.03228100
C       -0.45010500       2.63965400       0.01843500
C        0.99654200       2.45238200       0.05441800
C       -0.76903400       0.15867800      -0.04877100
C        0.67752200      -0.02870400      -0.01297900
C        1.52709100       1.12265000       0.03785500
C        2.93347700       0.94084900       0.07277000
C        3.48023700      -0.37253000       0.05696900
C        3.79427800       2.07240500       0.12351100
C        5.26507800       1.88272800       0.16006300
C        1.24802600      -1.29258500      -0.02698300
C        2.64560500      -1.46904700       0.00777700
C        1.86805800       3.52983300       0.10418700
C        3.26457400       3.34539700       0.13880400
C        4.95087500      -0.56291500       0.09346700
N        5.75909100       0.57580800       0.14293500
O        6.06925500       2.83065500       0.20492200
O        5.48910000      -1.68427500       0.08194900
C       -1.02041300       3.90352800       0.03216900
C       -2.41794600       4.08003500      -0.00262400
C       -2.70602800       1.67000700      -0.06716000
C       -3.25245200       2.98347100      -0.05156500
C       -3.56691500       0.53850500      -0.11766500
C       -3.03687800      -0.73433100      -0.13279200
C       -1.64041100      -0.91883000      -0.09829200
C       -4.72314700       3.17392200      -0.08803700
C       -5.03773600       0.72818300      -0.15412500
N       -5.53143900       2.03522700      -0.13722100
O       -5.26133100       4.29529300      -0.07673500
O       -5.84203300      -0.21964700      -0.19870900
H        0.62972700      -2.20233100      -0.06573200
H        3.07286500      -2.48716200      -0.00439800
H        1.49989900       4.56697900       0.11841200
H        3.93550500       4.22152900       0.17822500
H        6.75033500       0.44779700       0.16755800
H       -0.40199700       4.81321100       0.07071000
H       -2.84532000       5.09816700       0.00933800
H       -3.70773700      -1.61056600      -0.17200800
H       -1.27202900      -1.95588300      -0.11238600
H       -6.52266300       2.16338500      -0.16179200
C        9.73342135       4.50123179       2.66452833
C       10.83623473       4.31763299       3.55898259
C       10.72883103       4.81136311       4.92786831
C        8.52840135       5.15568865       3.07623828
C        8.42081708       5.64927021       4.44507729
C        9.52370921       5.46574790       5.33945759
C        9.41950492       5.94557615       6.67028385
C        8.23020557       6.59850086       7.09855592
C       10.50463007       5.77282547       7.57396112
C       10.39608067       6.27448512       8.96576595
C        7.27833912       6.29053668       4.89959630
C        7.17865613       6.76575242       6.22239918
C       11.76442977       4.66206097       5.83790230
C       11.65735733       5.14002421       7.15909818
C        8.12098115       7.10035005       8.49016365
N        9.21035358       6.90954072       9.34410145
O       11.30889788       6.15411093       9.80215901
O        7.10879493       7.67869688       8.92405427
C       11.97860439       3.67618473       3.10472164
C       12.07831686       3.20093453       1.78197509
C        9.83752392       4.02150809       1.33375964
C       11.02682967       3.36845892       0.90587102
C        8.75254014       4.19442158       0.42994268
C        7.60003376       4.82739614       0.84509538
C        7.49285495       5.30526843       2.16626947
C       11.13612298       2.86659113      -0.48579319
C        8.86112674       3.69283669      -0.96190611
N       10.04688779       3.05761840      -1.33987551
O       12.14823380       2.28806126      -0.91958755
O        7.94850477       3.81338178      -1.79847835
H        6.40926743       6.45100334       4.24354922
H        6.25687267       7.27287302       6.55766242
H       12.70647037       4.16505296       5.56048968
H       12.49774470       5.00757551       7.86302724
H        9.13702911       7.24769452      10.28209576
H       12.84753879       3.51559174       3.76093031
H       13.00002631       2.69358957       1.44665857
H        6.75963706       4.96008497       0.14117455
H        6.55095975       5.80241446       2.44387012
H       10.12036835       2.71945741      -2.27785258
