80
Dimer: struct; Energy: -4906.06228 eV
C       -1.29972200       1.48833600      -0.03228100
C       -0.45010500       2.63965400       0.01843500
C        0.99654200       2.45238200       0.05441800
C       -0.76903400       0.15867800      -0.04877100
C        0.67752200      -0.02870400      -0.01297900
C        1.52709100       1.12265000       0.03785500
C        2.93347700       0.94084900       0.07277000
C        3.48023700      -0.37253000       0.05696900
C        3.79427800       2.07240500       0.12351100
C        5.26507800       1.88272800       0.16006300
C        1.24802600      -1.29258500      -0.02698300
C        2.64560500      -1.46904700       0.00777700
C        1.86805800       3.52983300       0.10418700
C        3.26457400       3.34539700       0.13880400
C        4.95087500      -0.56291500       0.09346700
N        5.75909100       0.57580800       0.14293500
O        6.06925500       2.83065500       0.20492200
O        5.48910000      -1.68427500       0.08194900
C       -1.02041300       3.90352800       0.03216900
C       -2.41794600       4.08003500      -0.00262400
C       -2.70602800       1.67000700      -0.06716000
C       -3.25245200       2.98347100      -0.05156500
C       -3.56691500       0.53850500      -0.11766500
C       -3.03687800      -0.73433100      -0.13279200
C       -1.64041100      -0.91883000      -0.09829200
C       -4.72314700       3.17392200      -0.08803700
C       -5.03773600       0.72818300      -0.15412500
N       -5.53143900       2.03522700      -0.13722100
O       -5.26133100       4.29529300      -0.07673500
O       -5.84203300      -0.21964700      -0.19870900
H        0.62972700      -2.20233100      -0.06573200
H        3.07286500      -2.48716200      -0.00439800
H        1.49989900       4.56697900       0.11841200
H        3.93550500       4.22152900       0.17822500
H        6.75033500       0.44779700       0.16755800
H       -0.40199700       4.81321100       0.07071000
H       -2.84532000       5.09816700       0.00933800
H       -3.70773700      -1.61056600      -0.17200800
H       -1.27202900      -1.95588300      -0.11238600
H       -6.52266300       2.16338500      -0.16179200
C        5.71043893       8.35133720       4.26424814
C        4.50015332       7.59952066       4.40543920
C        3.62737493       7.86780371       5.54361108
C        6.08772827       9.35896618       5.20882671
C        5.21498715       9.62745043       6.34687613
C        4.00476821       8.87552046       6.48808185
C        3.15610318       9.13620115       7.59442967
C        3.51347568      10.13367283       8.54390094
C        1.94928147       8.39953934       7.75217229
C        1.06150985       8.67181543       8.90901858
C        5.52894188      10.59144077       7.29303740
C        4.68325181      10.84748496       8.39068207
C        2.44324924       7.17113924       5.73182027
C        1.60272120       7.43278298       6.83205983
C        2.62619000      10.40646749       9.70090650
N        1.45090655       9.65977575       9.81714121
O       -0.00551665       8.06232740       9.10204028
O        2.88311375      11.26469803      10.56386513
C        4.18594427       6.63574635       3.45927373
C        5.03156224       6.37969873       2.36162460
C        6.55913870       8.09073181       3.15803343
C        6.20139301       7.09338213       2.20865379
C        7.76609703       8.82718058       3.00033505
C        8.11241625       9.79374788       3.92071007
C        7.27190393      10.05551254       5.02087756
C        7.08869256       6.82051639       1.05159314
C        8.65392460       8.55483697       1.84352363
N        8.26414236       7.56698088       0.93544733
O        6.83163564       5.96243405       0.18854093
O        9.72110468       9.16405053       1.65052461
H        6.44940778      11.19050499       7.22025332
H        4.95796540      11.62104265       9.12919303
H        2.11809910       6.38933692       5.02862915
H        0.66532297       6.86280829       6.95745165
H        0.85268935       9.84340943      10.59686721
H        3.26533832       6.03688536       3.53205501
H        4.75682005       5.60626560       1.62290793
H        9.04991679      10.36365951       3.79552651
H        7.59690818      10.83718242       5.72426031
H        8.86228670       7.38320942       0.15570081
