80
Dimer: struct; Energy: -4906.06228 eV
C       -1.29972200       1.48833600      -0.03228100
C       -0.45010500       2.63965400       0.01843500
C        0.99654200       2.45238200       0.05441800
C       -0.76903400       0.15867800      -0.04877100
C        0.67752200      -0.02870400      -0.01297900
C        1.52709100       1.12265000       0.03785500
C        2.93347700       0.94084900       0.07277000
C        3.48023700      -0.37253000       0.05696900
C        3.79427800       2.07240500       0.12351100
C        5.26507800       1.88272800       0.16006300
C        1.24802600      -1.29258500      -0.02698300
C        2.64560500      -1.46904700       0.00777700
C        1.86805800       3.52983300       0.10418700
C        3.26457400       3.34539700       0.13880400
C        4.95087500      -0.56291500       0.09346700
N        5.75909100       0.57580800       0.14293500
O        6.06925500       2.83065500       0.20492200
O        5.48910000      -1.68427500       0.08194900
C       -1.02041300       3.90352800       0.03216900
C       -2.41794600       4.08003500      -0.00262400
C       -2.70602800       1.67000700      -0.06716000
C       -3.25245200       2.98347100      -0.05156500
C       -3.56691500       0.53850500      -0.11766500
C       -3.03687800      -0.73433100      -0.13279200
C       -1.64041100      -0.91883000      -0.09829200
C       -4.72314700       3.17392200      -0.08803700
C       -5.03773600       0.72818300      -0.15412500
N       -5.53143900       2.03522700      -0.13722100
O       -5.26133100       4.29529300      -0.07673500
O       -5.84203300      -0.21964700      -0.19870900
H        0.62972700      -2.20233100      -0.06573200
H        3.07286500      -2.48716200      -0.00439800
H        1.49989900       4.56697900       0.11841200
H        3.93550500       4.22152900       0.17822500
H        6.75033500       0.44779700       0.16755800
H       -0.40199700       4.81321100       0.07071000
H       -2.84532000       5.09816700       0.00933800
H       -3.70773700      -1.61056600      -0.17200800
H       -1.27202900      -1.95588300      -0.11238600
H       -6.52266300       2.16338500      -0.16179200
C        6.15862517       9.61343528       1.38858911
C        6.63827724      10.87499466       1.86645532
C        6.42652286      11.23026261       3.26577583
C        5.47719359       8.69108666       2.24580326
C        5.26555488       9.04614656       3.64510983
C        5.74512582      10.30777260       4.12289543
C        5.53945156      10.65333670       5.48321737
C        4.86458170       9.75019731       6.35100219
C        6.00854377      11.90243407       5.97685718
C        5.79364165      12.26421394       7.39935444
C        4.61240816       8.19271199       4.52153148
C        4.41006358       8.53960287       5.87219707
C        6.86880274      12.43798260       3.78415667
C        6.66266555      12.77787434       5.13598986
C        4.64938262      10.11131400       7.77354877
N        5.12632135      11.34780983       8.21621994
O        6.17957076      13.33999914       7.89029586
O        4.06717233       9.36545775       8.58101189
C        7.29164205      11.72836822       0.99027879
C        7.49403485      11.38151519      -0.36034844
C        6.36419860       9.26780759       0.02836908
C        7.03926870      10.17103848      -0.83907797
C        5.89493452       8.01883211      -0.46541774
C        5.24072705       7.14370902       0.37568374
C        5.03466250       7.48347923       1.72751354
C        7.25448169       9.80996850      -2.26170140
C        6.10975888       7.65708750      -1.88795520
N        6.77731602       8.57359824      -2.70451380
O        7.83688172      10.55575013      -3.06908150
O        5.72364770       6.58146565      -2.37909562
H        4.22905512       7.21454633       4.19340757
H        3.88664316       7.84069963       6.54808375
H        7.39638925      13.17365256       3.15817151
H        7.02548755      13.74658888       5.52233432
H        4.98140892      11.59147888       9.17496055
H        7.67513639      12.70642781       1.31857505
H        8.01765475      12.08029727      -1.03629978
H        4.87767210       6.17502684      -0.01061070
H        4.50699574       6.74802120       2.35365421
H        6.92225567       8.33008067      -3.66328641
