80
Dimer: struct; Energy: -4906.06228 eV
C       -1.29972200       1.48833600      -0.03228100
C       -0.45010500       2.63965400       0.01843500
C        0.99654200       2.45238200       0.05441800
C       -0.76903400       0.15867800      -0.04877100
C        0.67752200      -0.02870400      -0.01297900
C        1.52709100       1.12265000       0.03785500
C        2.93347700       0.94084900       0.07277000
C        3.48023700      -0.37253000       0.05696900
C        3.79427800       2.07240500       0.12351100
C        5.26507800       1.88272800       0.16006300
C        1.24802600      -1.29258500      -0.02698300
C        2.64560500      -1.46904700       0.00777700
C        1.86805800       3.52983300       0.10418700
C        3.26457400       3.34539700       0.13880400
C        4.95087500      -0.56291500       0.09346700
N        5.75909100       0.57580800       0.14293500
O        6.06925500       2.83065500       0.20492200
O        5.48910000      -1.68427500       0.08194900
C       -1.02041300       3.90352800       0.03216900
C       -2.41794600       4.08003500      -0.00262400
C       -2.70602800       1.67000700      -0.06716000
C       -3.25245200       2.98347100      -0.05156500
C       -3.56691500       0.53850500      -0.11766500
C       -3.03687800      -0.73433100      -0.13279200
C       -1.64041100      -0.91883000      -0.09829200
C       -4.72314700       3.17392200      -0.08803700
C       -5.03773600       0.72818300      -0.15412500
N       -5.53143900       2.03522700      -0.13722100
O       -5.26133100       4.29529300      -0.07673500
O       -5.84203300      -0.21964700      -0.19870900
H        0.62972700      -2.20233100      -0.06573200
H        3.07286500      -2.48716200      -0.00439800
H        1.49989900       4.56697900       0.11841200
H        3.93550500       4.22152900       0.17822500
H        6.75033500       0.44779700       0.16755800
H       -0.40199700       4.81321100       0.07071000
H       -2.84532000       5.09816700       0.00933800
H       -3.70773700      -1.61056600      -0.17200800
H       -1.27202900      -1.95588300      -0.11238600
H       -6.52266300       2.16338500      -0.16179200
C        1.78037982       9.75477476       4.12714432
C        2.00089683       8.78350660       3.09857020
C        2.12400635       7.37679197       3.46619923
C        1.67725294       9.38378987       5.50613929
C        1.80015584       7.97716221       5.87384959
C        2.02078992       7.00594720       4.84524393
C        2.14043154       5.63834635       5.20237982
C        2.04068942       5.24960916       6.56733237
C        2.35992333       4.65832454       4.19473276
C        2.48512472       3.22803652       4.56778349
C        1.70858554       7.55928624       7.19296318
C        1.82793692       6.19976336       7.54371515
C        2.33821311       6.39241556       2.51328984
C        2.45659401       5.03486567       2.87178136
C        2.16575872       3.81955979       6.94105841
N        2.38084415       2.89063229       5.91969549
O        2.67736359       2.32504455       3.73415990
O        2.08774182       3.41716024       8.11547529
C        2.09221261       9.20116690       1.77946496
C        1.97283605      10.56063623       1.42867141
C        1.66076751      11.12231466       3.77014993
C        1.76033749      11.51069219       2.40513756
C        1.44150888      12.10243495       4.77775294
C        1.34504190      11.72555988       6.10060547
C        1.46329713      10.36805609       6.45914329
C        1.63529609      12.94079241       2.03134141
C        1.31639741      13.53275131       4.40470641
N        1.42048976      13.86981556       3.05269128
O        1.71310253      13.34313208       0.85690042
O        1.12443201      14.43587364       5.23824252
H        1.53950554       8.27437267       8.01241195
H        1.75093947       5.89504232       8.60223959
H        2.42332988       6.63659363       1.44345461
H        2.62699518       4.27168257       2.09215023
H        2.46519557       1.92671123       6.17128804
H        2.26108865       8.48595470       0.96007537
H        2.04961534      10.86545032       0.37009798
H        1.17483979      12.48870089       6.88036474
H        1.37833539      10.12365739       7.52892534
H        1.33620527      14.83370396       2.80096029
