80
Dimer: struct; Energy: -4906.06228 eV
C       -1.29972200       1.48833600      -0.03228100
C       -0.45010500       2.63965400       0.01843500
C        0.99654200       2.45238200       0.05441800
C       -0.76903400       0.15867800      -0.04877100
C        0.67752200      -0.02870400      -0.01297900
C        1.52709100       1.12265000       0.03785500
C        2.93347700       0.94084900       0.07277000
C        3.48023700      -0.37253000       0.05696900
C        3.79427800       2.07240500       0.12351100
C        5.26507800       1.88272800       0.16006300
C        1.24802600      -1.29258500      -0.02698300
C        2.64560500      -1.46904700       0.00777700
C        1.86805800       3.52983300       0.10418700
C        3.26457400       3.34539700       0.13880400
C        4.95087500      -0.56291500       0.09346700
N        5.75909100       0.57580800       0.14293500
O        6.06925500       2.83065500       0.20492200
O        5.48910000      -1.68427500       0.08194900
C       -1.02041300       3.90352800       0.03216900
C       -2.41794600       4.08003500      -0.00262400
C       -2.70602800       1.67000700      -0.06716000
C       -3.25245200       2.98347100      -0.05156500
C       -3.56691500       0.53850500      -0.11766500
C       -3.03687800      -0.73433100      -0.13279200
C       -1.64041100      -0.91883000      -0.09829200
C       -4.72314700       3.17392200      -0.08803700
C       -5.03773600       0.72818300      -0.15412500
N       -5.53143900       2.03522700      -0.13722100
O       -5.26133100       4.29529300      -0.07673500
O       -5.84203300      -0.21964700      -0.19870900
H        0.62972700      -2.20233100      -0.06573200
H        3.07286500      -2.48716200      -0.00439800
H        1.49989900       4.56697900       0.11841200
H        3.93550500       4.22152900       0.17822500
H        6.75033500       0.44779700       0.16755800
H       -0.40199700       4.81321100       0.07071000
H       -2.84532000       5.09816700       0.00933800
H       -3.70773700      -1.61056600      -0.17200800
H       -1.27202900      -1.95588300      -0.11238600
H       -6.52266300       2.16338500      -0.16179200
C        5.64209865       4.02398675       6.70035905
C        6.56313212       3.43365485       7.62402561
C        7.21521058       4.28260618       8.61560437
C        5.34329767       5.42402216       6.72296171
C        5.99513935       6.27299489       7.71455894
C        6.91625556       5.68262845       8.63812811
C        7.55024064       6.50771743       9.60222527
C        7.26640688       7.90131110       9.64089889
C        8.46863899       5.93978876      10.52849386
C        9.13187464       6.80228307      11.53685297
C        5.74441453       7.63513137       7.78374981
C        6.37619445       8.45142137       8.74296768
C        8.11594788       3.76647818       9.53495303
C        8.74384528       4.58915940      10.49120215
C        7.92923310       8.76433432      10.64896982
N        8.82410266       8.16524039      11.53927605
O        9.94329125       6.36598689      12.37263243
O        7.72300898       9.98810012      10.73344436
C        6.81374013       2.07157259       7.55514261
C        6.18197535       1.25525982       6.59599169
C        5.00812708       3.19905402       5.73626181
C        5.29199894       1.80551111       5.69798635
C        4.08989171       3.76693391       4.80980070
C        3.81503887       5.11761177       4.84728084
C        4.44279628       5.94030547       5.80354749
C        4.62919218       0.94240808       4.68987626
C        3.42671747       2.90444387       3.80137006
N        3.73451696       1.54148833       3.79934809
O        4.83527354      -0.28138322       4.60556734
O        2.61549511       3.34064436       2.96536138
H        5.04335618       8.12677608       7.09220401
H        6.15788296       9.53333830       8.77542313
H        8.37224611       2.69620146       9.55025553
H        9.45718791       4.15153773      11.21157653
H        9.27100806       8.74667033      12.21881454
H        7.51466850       1.58000362       8.24688409
H        6.40007377       0.17323975       6.56358740
H        3.10184763       5.55539010       4.12680470
H        4.18674540       7.01062786       5.78835577
H        3.28772152       0.95994881       3.11983440
