80
Dimer: struct; Energy: -4906.06228 eV
C       -1.29972200       1.48833600      -0.03228100
C       -0.45010500       2.63965400       0.01843500
C        0.99654200       2.45238200       0.05441800
C       -0.76903400       0.15867800      -0.04877100
C        0.67752200      -0.02870400      -0.01297900
C        1.52709100       1.12265000       0.03785500
C        2.93347700       0.94084900       0.07277000
C        3.48023700      -0.37253000       0.05696900
C        3.79427800       2.07240500       0.12351100
C        5.26507800       1.88272800       0.16006300
C        1.24802600      -1.29258500      -0.02698300
C        2.64560500      -1.46904700       0.00777700
C        1.86805800       3.52983300       0.10418700
C        3.26457400       3.34539700       0.13880400
C        4.95087500      -0.56291500       0.09346700
N        5.75909100       0.57580800       0.14293500
O        6.06925500       2.83065500       0.20492200
O        5.48910000      -1.68427500       0.08194900
C       -1.02041300       3.90352800       0.03216900
C       -2.41794600       4.08003500      -0.00262400
C       -2.70602800       1.67000700      -0.06716000
C       -3.25245200       2.98347100      -0.05156500
C       -3.56691500       0.53850500      -0.11766500
C       -3.03687800      -0.73433100      -0.13279200
C       -1.64041100      -0.91883000      -0.09829200
C       -4.72314700       3.17392200      -0.08803700
C       -5.03773600       0.72818300      -0.15412500
N       -5.53143900       2.03522700      -0.13722100
O       -5.26133100       4.29529300      -0.07673500
O       -5.84203300      -0.21964700      -0.19870900
H        0.62972700      -2.20233100      -0.06573200
H        3.07286500      -2.48716200      -0.00439800
H        1.49989900       4.56697900       0.11841200
H        3.93550500       4.22152900       0.17822500
H        6.75033500       0.44779700       0.16755800
H       -0.40199700       4.81321100       0.07071000
H       -2.84532000       5.09816700       0.00933800
H       -3.70773700      -1.61056600      -0.17200800
H       -1.27202900      -1.95588300      -0.11238600
H       -6.52266300       2.16338500      -0.16179200
C        9.36434731       3.47703321       4.35923578
C        9.39538760       4.90671392       4.42997366
C        9.47415520       5.55049769       5.73706633
C        9.40857278       2.66189336       5.53545141
C        9.48752216       3.30552504       6.84251782
C        9.51844138       4.73521564       6.91320309
C        9.59508612       5.36129464       8.18377104
C        9.64010605       4.56860638       9.36435526
C        9.62678058       6.78069288       8.27474409
C        9.70690310       7.43582420       9.60325806
C        9.53322709       2.56723245       8.01550598
C        9.60937594       3.19289108       9.27579435
C        9.50707126       6.93071168       5.86684930
C        9.58318667       7.54913835       7.13066369
C        9.72026131       5.22305607      10.69312364
N        9.74906182       6.61935440      10.73638728
O        9.73781350       8.67081572       9.74858211
O        9.76249534       4.58574133      11.76050984
C        9.34996751       5.64509415       3.25713566
C        9.27385577       5.01949657       1.99685854
C        9.28767167       2.85089205       3.08880847
C        9.24288513       3.64382520       1.90844359
C        9.25573567       1.43150410       2.99774848
C        9.29919277       0.66338110       4.14202907
C        9.37542012       1.28172198       5.40583055
C        9.16270011       2.98940043       0.57959290
C        9.17551977       0.77636701       1.66922212
N        9.13361072       1.59309886       0.53626796
O        9.12068479       3.62673525      -0.48777851
O        9.14432670      -0.45859505       1.52376147
H        9.51165975       1.46685556       8.00373852
H        9.64447722       2.58029810      10.19381137
H        9.47491166       7.59184857       4.98748646
H        9.60795165       8.65059245       7.20479375
H        9.80306943       7.06073030      11.63183592
H        9.37175089       6.74547186       3.26902249
H        9.23895778       5.63202931       1.07872448
H        9.27422812      -0.43810795       4.06802834
H        9.40746820       0.62079257       6.28533501
H        9.07955457       1.15185917      -0.35924234
