80
Dimer: struct; Energy: -4906.06228 eV
C       -1.29972200       1.48833600      -0.03228100
C       -0.45010500       2.63965400       0.01843500
C        0.99654200       2.45238200       0.05441800
C       -0.76903400       0.15867800      -0.04877100
C        0.67752200      -0.02870400      -0.01297900
C        1.52709100       1.12265000       0.03785500
C        2.93347700       0.94084900       0.07277000
C        3.48023700      -0.37253000       0.05696900
C        3.79427800       2.07240500       0.12351100
C        5.26507800       1.88272800       0.16006300
C        1.24802600      -1.29258500      -0.02698300
C        2.64560500      -1.46904700       0.00777700
C        1.86805800       3.52983300       0.10418700
C        3.26457400       3.34539700       0.13880400
C        4.95087500      -0.56291500       0.09346700
N        5.75909100       0.57580800       0.14293500
O        6.06925500       2.83065500       0.20492200
O        5.48910000      -1.68427500       0.08194900
C       -1.02041300       3.90352800       0.03216900
C       -2.41794600       4.08003500      -0.00262400
C       -2.70602800       1.67000700      -0.06716000
C       -3.25245200       2.98347100      -0.05156500
C       -3.56691500       0.53850500      -0.11766500
C       -3.03687800      -0.73433100      -0.13279200
C       -1.64041100      -0.91883000      -0.09829200
C       -4.72314700       3.17392200      -0.08803700
C       -5.03773600       0.72818300      -0.15412500
N       -5.53143900       2.03522700      -0.13722100
O       -5.26133100       4.29529300      -0.07673500
O       -5.84203300      -0.21964700      -0.19870900
H        0.62972700      -2.20233100      -0.06573200
H        3.07286500      -2.48716200      -0.00439800
H        1.49989900       4.56697900       0.11841200
H        3.93550500       4.22152900       0.17822500
H        6.75033500       0.44779700       0.16755800
H       -0.40199700       4.81321100       0.07071000
H       -2.84532000       5.09816700       0.00933800
H       -3.70773700      -1.61056600      -0.17200800
H       -1.27202900      -1.95588300      -0.11238600
H       -6.52266300       2.16338500      -0.16179200
C       11.98135110       1.34198337      -0.84435515
C       13.40029178       1.37068105      -0.65530995
C       13.95001572       1.00239016       0.64519707
C       11.08722612       0.96184178       0.20727452
C       11.63681419       0.59337358       1.50769809
C       13.05575962       0.62220199       1.69672299
C       13.59041138       0.26414206       2.96089577
C       12.71835187      -0.11665951       4.01856441
C       14.99768239       0.28660291       3.16839470
C       15.55721277      -0.08774306       4.49027098
C       10.81946347       0.21671339       2.56274834
C       11.35441833      -0.13832158       3.81707988
C       15.31554596       1.01188129       0.88635015
C       15.84304600       0.65561145       2.14344499
C       13.27718801      -0.49113710       5.34061713
N       14.66478876      -0.45519392       5.50068741
O       16.77702086      -0.08795358       4.73388288
O       12.56779143      -0.83266603       6.30362365
C       14.21773967       1.74703302      -1.71027700
C       13.68284744       2.10203256      -2.96460127
C       11.44662486       1.70003472      -2.10839018
C       12.31892903       2.08056893      -3.16588213
C       10.03935263       1.67782966      -2.31591305
C        9.19428484       1.30892061      -1.29070767
C        9.72170879       0.95254118      -0.03366038
C       11.76012154       2.45509719      -4.48800480
C        9.47981052       2.05226869      -3.63777898
N       10.37250071       2.41944843      -4.64806392
O       12.46955319       2.79641204      -5.45104872
O        8.26002087       2.05278821      -3.88145101
H        9.72437835       0.18171818       2.45788258
H       10.68009280      -0.43431914       4.63983623
H       16.03551769       1.29797183       0.10455213
H       16.93484133       0.67199360       2.30783562
H       15.04172876      -0.70752527       6.39164358
H       15.31283280       1.78178959      -1.60534874
H       14.35713674       2.39785961      -3.78752575
H        8.10243044       1.29269733      -1.45492775
H        9.00192471       0.66653417       0.74832027
H        9.99569713       2.67184940      -5.53905553
