80
Dimer: struct; Energy: -4906.06228 eV
C       -1.29972200       1.48833600      -0.03228100
C       -0.45010500       2.63965400       0.01843500
C        0.99654200       2.45238200       0.05441800
C       -0.76903400       0.15867800      -0.04877100
C        0.67752200      -0.02870400      -0.01297900
C        1.52709100       1.12265000       0.03785500
C        2.93347700       0.94084900       0.07277000
C        3.48023700      -0.37253000       0.05696900
C        3.79427800       2.07240500       0.12351100
C        5.26507800       1.88272800       0.16006300
C        1.24802600      -1.29258500      -0.02698300
C        2.64560500      -1.46904700       0.00777700
C        1.86805800       3.52983300       0.10418700
C        3.26457400       3.34539700       0.13880400
C        4.95087500      -0.56291500       0.09346700
N        5.75909100       0.57580800       0.14293500
O        6.06925500       2.83065500       0.20492200
O        5.48910000      -1.68427500       0.08194900
C       -1.02041300       3.90352800       0.03216900
C       -2.41794600       4.08003500      -0.00262400
C       -2.70602800       1.67000700      -0.06716000
C       -3.25245200       2.98347100      -0.05156500
C       -3.56691500       0.53850500      -0.11766500
C       -3.03687800      -0.73433100      -0.13279200
C       -1.64041100      -0.91883000      -0.09829200
C       -4.72314700       3.17392200      -0.08803700
C       -5.03773600       0.72818300      -0.15412500
N       -5.53143900       2.03522700      -0.13722100
O       -5.26133100       4.29529300      -0.07673500
O       -5.84203300      -0.21964700      -0.19870900
H        0.62972700      -2.20233100      -0.06573200
H        3.07286500      -2.48716200      -0.00439800
H        1.49989900       4.56697900       0.11841200
H        3.93550500       4.22152900       0.17822500
H        6.75033500       0.44779700       0.16755800
H       -0.40199700       4.81321100       0.07071000
H       -2.84532000       5.09816700       0.00933800
H       -3.70773700      -1.61056600      -0.17200800
H       -1.27202900      -1.95588300      -0.11238600
H       -6.52266300       2.16338500      -0.16179200
C        7.59201855       3.53451121       1.75664118
C        8.48442921       2.44915176       1.48177326
C        8.87280631       1.55753547       2.56958608
C        7.07026330       3.76892559       3.06916297
C        7.45840274       2.87731543       4.15695726
C        8.35091124       1.79203871       3.88205609
C        8.72855779       0.92508049       4.93939178
C        8.22067376       1.14133361       6.25066939
C        9.61446652      -0.15891707       4.68623766
C       10.00966895      -1.06576833       5.79167960
C        6.98456086       3.05550696       5.44799861
C        7.36202694       2.19208753       6.49566287
C        9.73382399       0.49041031       2.36267982
C       10.10679149      -0.36870020       3.41543634
C        8.61542239       0.23488842       7.35651083
N        9.48742452      -0.81684461       7.06356004
O       10.77980385      -2.02982139       5.63428676
O        8.20581370       0.37138949       8.52306784
C        8.95811258       2.27067692       0.19080923
C        8.58065734       3.13402550      -0.85686464
C        7.21435999       4.40149405       0.69945992
C        7.72222756       4.18485477      -0.61170293
C        6.32864095       5.48565844       0.95256720
C        5.83663300       5.69523345       2.22350624
C        6.20945926       4.83612003       3.27625261
C        7.32751540       5.09132359      -1.71762434
C        5.93350621       6.39257529      -0.15287020
N        6.45573138       6.14325538      -1.42468499
O        7.73696931       4.95466812      -2.88420715
O        5.16360343       7.35682078       0.00443031
H        6.29713249       3.87729260       5.70007704
H        6.96945502       2.35740811       7.51439438
H       10.15627885       0.27675560       1.36905072
H       10.79422731      -1.21099398       3.22234855
H        9.75367118      -1.42794047       7.80869918
H        9.64537889       1.44872289      -0.06118981
H        8.97303123       2.96865635      -1.87572683
H        5.14933192       6.53763971       2.41675838
H        5.78722679       5.04965175       4.26998638
H        6.18960737       6.75429919      -2.16990758
