80
Dimer: struct; Energy: -4906.06228 eV
C       -1.29972200       1.48833600      -0.03228100
C       -0.45010500       2.63965400       0.01843500
C        0.99654200       2.45238200       0.05441800
C       -0.76903400       0.15867800      -0.04877100
C        0.67752200      -0.02870400      -0.01297900
C        1.52709100       1.12265000       0.03785500
C        2.93347700       0.94084900       0.07277000
C        3.48023700      -0.37253000       0.05696900
C        3.79427800       2.07240500       0.12351100
C        5.26507800       1.88272800       0.16006300
C        1.24802600      -1.29258500      -0.02698300
C        2.64560500      -1.46904700       0.00777700
C        1.86805800       3.52983300       0.10418700
C        3.26457400       3.34539700       0.13880400
C        4.95087500      -0.56291500       0.09346700
N        5.75909100       0.57580800       0.14293500
O        6.06925500       2.83065500       0.20492200
O        5.48910000      -1.68427500       0.08194900
C       -1.02041300       3.90352800       0.03216900
C       -2.41794600       4.08003500      -0.00262400
C       -2.70602800       1.67000700      -0.06716000
C       -3.25245200       2.98347100      -0.05156500
C       -3.56691500       0.53850500      -0.11766500
C       -3.03687800      -0.73433100      -0.13279200
C       -1.64041100      -0.91883000      -0.09829200
C       -4.72314700       3.17392200      -0.08803700
C       -5.03773600       0.72818300      -0.15412500
N       -5.53143900       2.03522700      -0.13722100
O       -5.26133100       4.29529300      -0.07673500
O       -5.84203300      -0.21964700      -0.19870900
H        0.62972700      -2.20233100      -0.06573200
H        3.07286500      -2.48716200      -0.00439800
H        1.49989900       4.56697900       0.11841200
H        3.93550500       4.22152900       0.17822500
H        6.75033500       0.44779700       0.16755800
H       -0.40199700       4.81321100       0.07071000
H       -2.84532000       5.09816700       0.00933800
H       -3.70773700      -1.61056600      -0.17200800
H       -1.27202900      -1.95588300      -0.11238600
H       -6.52266300       2.16338500      -0.16179200
C        8.61208511       3.02476006       4.70788992
C        8.73155082       4.35142492       5.23290667
C        8.97214698       5.45883300       4.31371466
C        8.72206233       2.75491360       3.30611249
C        8.96246148       3.86220408       2.38685552
C        9.08203598       5.18883710       2.91194065
C        9.31585981       6.26557111       2.01854122
C        9.42805222       6.01788496       0.62203666
C        9.43767721       7.59096117       2.52100884
C        9.68222964       8.71724986       1.58707418
C        9.07766629       3.66088426       1.01964512
C        9.30991864       4.73313109       0.13538286
C        9.09665709       6.76415939       4.76486654
C        9.32894603       7.83123634       3.87443937
C        9.67255779       7.14366185      -0.31241404
N        9.78564964       8.42898851       0.22377238
O        9.79794097       9.89690565       1.96430313
O        9.78004279       6.99180452      -1.54231378
C        8.61610578       4.55293035       6.59997848
C        8.38382522       3.48074935       7.48425073
C        8.37831309       1.94801970       5.60114146
C        8.26595919       2.19605226       6.99751767
C        8.25671537       0.62256464       5.09879014
C        8.36564998       0.38263685       3.74533256
C        8.59781898       1.44964977       2.85486572
C        8.02146890       1.07026074       7.93205687
C        8.01225110      -0.50374969       6.03274664
N        7.90864665      -0.21514103       7.39596473
O        7.91377524       1.22217851       9.16192098
O        7.89679167      -1.68347944       5.65569237
H        8.99181771       2.65688909       0.57686227
H        9.39742822       4.54398403      -0.94897084
H        9.01846946       7.01285873       5.83418901
H        9.42400353       8.86115217       4.26115266
H        9.95046164       9.18795450      -0.40580320
H        8.70176700       5.55700902       7.04262405
H        8.29608857       3.66982999       8.56865618
H        8.27080939      -0.64729328       3.35851649
H        8.67616293       1.20117503       1.78551761
H        7.74388289      -0.97401598       8.02565905
