80
Dimer: struct; Energy: -4906.06228 eV
C       -1.29972200       1.48833600      -0.03228100
C       -0.45010500       2.63965400       0.01843500
C        0.99654200       2.45238200       0.05441800
C       -0.76903400       0.15867800      -0.04877100
C        0.67752200      -0.02870400      -0.01297900
C        1.52709100       1.12265000       0.03785500
C        2.93347700       0.94084900       0.07277000
C        3.48023700      -0.37253000       0.05696900
C        3.79427800       2.07240500       0.12351100
C        5.26507800       1.88272800       0.16006300
C        1.24802600      -1.29258500      -0.02698300
C        2.64560500      -1.46904700       0.00777700
C        1.86805800       3.52983300       0.10418700
C        3.26457400       3.34539700       0.13880400
C        4.95087500      -0.56291500       0.09346700
N        5.75909100       0.57580800       0.14293500
O        6.06925500       2.83065500       0.20492200
O        5.48910000      -1.68427500       0.08194900
C       -1.02041300       3.90352800       0.03216900
C       -2.41794600       4.08003500      -0.00262400
C       -2.70602800       1.67000700      -0.06716000
C       -3.25245200       2.98347100      -0.05156500
C       -3.56691500       0.53850500      -0.11766500
C       -3.03687800      -0.73433100      -0.13279200
C       -1.64041100      -0.91883000      -0.09829200
C       -4.72314700       3.17392200      -0.08803700
C       -5.03773600       0.72818300      -0.15412500
N       -5.53143900       2.03522700      -0.13722100
O       -5.26133100       4.29529300      -0.07673500
O       -5.84203300      -0.21964700      -0.19870900
H        0.62972700      -2.20233100      -0.06573200
H        3.07286500      -2.48716200      -0.00439800
H        1.49989900       4.56697900       0.11841200
H        3.93550500       4.22152900       0.17822500
H        6.75033500       0.44779700       0.16755800
H       -0.40199700       4.81321100       0.07071000
H       -2.84532000       5.09816700       0.00933800
H       -3.70773700      -1.61056600      -0.17200800
H       -1.27202900      -1.95588300      -0.11238600
H       -6.52266300       2.16338500      -0.16179200
C        7.44325505       0.64512509       6.29521269
C        7.36243773       2.02657850       5.92777653
C        7.06613196       3.01787440       6.95670241
C        7.24149308       0.20973340       7.64414496
C        6.94537931       1.20090257       8.67313361
C        6.86445777       2.58233381       8.30561889
C        6.57648878       3.54621058       9.30572272
C        6.37293027       3.13347588      10.65196734
C        6.49185438       4.92371017       8.96031873
C        6.19070263       5.93201725      10.00587624
C        6.74086838       0.83775370       9.99576896
C        6.45504731       1.79825874      10.98638016
C        6.97540934       4.36931006       6.65953443
C        6.68913429       5.32394144       7.65562551
C        6.07179008       4.14121228      11.69797719
N        5.99792683       5.48290482      11.31489022
O        6.10355011       7.14970834       9.76731508
O        5.88407005       3.84360664      12.89106525
C        7.56717995       2.38989228       4.60531631
C        7.85303004       1.42945349       3.61470498
C        7.73116270      -0.31877522       5.29525127
C        7.93487513       0.09428612       3.94918602
C        7.81558524      -1.69632290       5.64051810
C        7.61810169      -2.09621036       6.94526704
C        7.33194355      -1.14164863       7.94139737
C        8.23600578      -0.91345399       2.90308575
C        8.11665036      -2.70465184       4.59493021
N        8.30960589      -2.25520675       3.28605294
O        8.42393190      -0.61579495       1.71005367
O        8.20356264      -3.92239255       4.83329324
H        6.79452216      -0.21312629      10.31857764
H        6.29660507       1.48093633      12.03206655
H        7.12376298       4.74404155       5.63533585
H        6.62272826       6.39390432       7.39090042
H        5.79495963       6.16233967      12.01968124
H        7.51370448       3.44083657       4.28266573
H        8.01170202       1.74671368       2.56897386
H        7.68428455      -3.16619741       7.21007829
H        7.18343297      -1.51615854       8.96563846
H        8.51253296      -2.93453642       2.58115221
