80
Dimer: struct; Energy: -4906.06228 eV
C       -1.29972200       1.48833600      -0.03228100
C       -0.45010500       2.63965400       0.01843500
C        0.99654200       2.45238200       0.05441800
C       -0.76903400       0.15867800      -0.04877100
C        0.67752200      -0.02870400      -0.01297900
C        1.52709100       1.12265000       0.03785500
C        2.93347700       0.94084900       0.07277000
C        3.48023700      -0.37253000       0.05696900
C        3.79427800       2.07240500       0.12351100
C        5.26507800       1.88272800       0.16006300
C        1.24802600      -1.29258500      -0.02698300
C        2.64560500      -1.46904700       0.00777700
C        1.86805800       3.52983300       0.10418700
C        3.26457400       3.34539700       0.13880400
C        4.95087500      -0.56291500       0.09346700
N        5.75909100       0.57580800       0.14293500
O        6.06925500       2.83065500       0.20492200
O        5.48910000      -1.68427500       0.08194900
C       -1.02041300       3.90352800       0.03216900
C       -2.41794600       4.08003500      -0.00262400
C       -2.70602800       1.67000700      -0.06716000
C       -3.25245200       2.98347100      -0.05156500
C       -3.56691500       0.53850500      -0.11766500
C       -3.03687800      -0.73433100      -0.13279200
C       -1.64041100      -0.91883000      -0.09829200
C       -4.72314700       3.17392200      -0.08803700
C       -5.03773600       0.72818300      -0.15412500
N       -5.53143900       2.03522700      -0.13722100
O       -5.26133100       4.29529300      -0.07673500
O       -5.84203300      -0.21964700      -0.19870900
H        0.62972700      -2.20233100      -0.06573200
H        3.07286500      -2.48716200      -0.00439800
H        1.49989900       4.56697900       0.11841200
H        3.93550500       4.22152900       0.17822500
H        6.75033500       0.44779700       0.16755800
H       -0.40199700       4.81321100       0.07071000
H       -2.84532000       5.09816700       0.00933800
H       -3.70773700      -1.61056600      -0.17200800
H       -1.27202900      -1.95588300      -0.11238600
H       -6.52266300       2.16338500      -0.16179200
C       11.21068953       9.94175120       4.98926309
C       11.03539275       8.63823085       5.55500158
C       10.49098137       7.57102651       4.72202843
C       10.86668768      10.22679926       3.62900488
C       10.32246986       9.15968772       2.79592789
C       10.14708410       7.85621209       3.36175360
C        9.61792139       6.81855411       2.55215803
C        9.27010542       7.08186475       1.19796006
C        9.43615414       5.51664733       3.09619055
C        8.88278138       4.43122750       2.24989956
C        9.97176341       9.37726923       1.47202103
C        9.44642792       8.34384799       0.67099836
C       10.29914677       6.28950046       5.21579784
C        9.77321374       5.26123140       4.40862431
C        8.71674078       5.99694854       0.35114303
N        8.55477913       4.73364682       0.92576242
O        8.70045089       3.27355271       2.66682072
O        8.39398272       6.16412456      -0.83845627
C       11.38628416       8.42043613       6.87873040
C       11.91164111       9.45378856       7.67975887
C       11.73977412      10.97942221       5.79872330
C       12.08768098      10.71574837       7.15277167
C       11.92135760      12.28142005       5.25484553
C       11.58405283      12.53651615       3.94243134
C       11.05823670      11.50829608       3.13519463
C       12.64104950      11.80068072       7.99967818
C       12.47465179      13.36687604       6.10117426
N       12.80277575      13.06408969       7.42520126
O       12.96399664      11.63341931       9.18920390
O       12.65677943      14.52465456       5.68447110
H       10.09124594      10.36442928       1.00013981
H        9.17558974       8.54519920      -0.38036355
H       10.55084186       6.03022406       6.25543266
H        9.63086332       4.24962229       4.82778189
H        8.18182027       4.00222359       0.35525430
H       11.26694767       7.43317067       7.35044286
H       12.18271840       9.25247537       8.73112678
H       11.72617396      13.54816624       3.52321405
H       10.80635738      11.76736874       2.09556921
H       13.17569947      13.79542816       7.99583702
