80
Dimer: struct; Energy: -4906.06228 eV
C       -1.29972200       1.48833600      -0.03228100
C       -0.45010500       2.63965400       0.01843500
C        0.99654200       2.45238200       0.05441800
C       -0.76903400       0.15867800      -0.04877100
C        0.67752200      -0.02870400      -0.01297900
C        1.52709100       1.12265000       0.03785500
C        2.93347700       0.94084900       0.07277000
C        3.48023700      -0.37253000       0.05696900
C        3.79427800       2.07240500       0.12351100
C        5.26507800       1.88272800       0.16006300
C        1.24802600      -1.29258500      -0.02698300
C        2.64560500      -1.46904700       0.00777700
C        1.86805800       3.52983300       0.10418700
C        3.26457400       3.34539700       0.13880400
C        4.95087500      -0.56291500       0.09346700
N        5.75909100       0.57580800       0.14293500
O        6.06925500       2.83065500       0.20492200
O        5.48910000      -1.68427500       0.08194900
C       -1.02041300       3.90352800       0.03216900
C       -2.41794600       4.08003500      -0.00262400
C       -2.70602800       1.67000700      -0.06716000
C       -3.25245200       2.98347100      -0.05156500
C       -3.56691500       0.53850500      -0.11766500
C       -3.03687800      -0.73433100      -0.13279200
C       -1.64041100      -0.91883000      -0.09829200
C       -4.72314700       3.17392200      -0.08803700
C       -5.03773600       0.72818300      -0.15412500
N       -5.53143900       2.03522700      -0.13722100
O       -5.26133100       4.29529300      -0.07673500
O       -5.84203300      -0.21964700      -0.19870900
H        0.62972700      -2.20233100      -0.06573200
H        3.07286500      -2.48716200      -0.00439800
H        1.49989900       4.56697900       0.11841200
H        3.93550500       4.22152900       0.17822500
H        6.75033500       0.44779700       0.16755800
H       -0.40199700       4.81321100       0.07071000
H       -2.84532000       5.09816700       0.00933800
H       -3.70773700      -1.61056600      -0.17200800
H       -1.27202900      -1.95588300      -0.11238600
H       -6.52266300       2.16338500      -0.16179200
C        3.13145431       2.47436873      10.60363245
C        3.79327778       3.48544715       9.83573635
C        3.79833171       3.38096899       8.38032854
C        2.47453338       1.36395374       9.98288652
C        2.47936286       1.25947231       8.52755919
C        3.14130405       2.27051979       7.75971515
C        3.14628994       2.16920626       6.34482895
C        2.49889339       1.07331224       5.70917607
C        3.79873816       3.16381617       5.56442237
C        3.80421139       3.05823181       4.08476429
C        1.85948767       0.20657667       7.87163875
C        1.86660641       0.10948672       6.46590157
C        4.42327782       4.32998203       7.58551136
C        4.42621930       4.22603470       6.18028603
C        2.50395688       0.96713634       4.22963029
N        3.15643222       1.96583649       3.50215232
O        4.35671678       3.89456315       3.34817331
O        1.95627170       0.03417701       3.61571263
C        4.41292552       4.53848304      10.49145689
C        4.40580304       4.63563081      11.89715079
C        3.12643799       2.57555620      12.01843046
C        3.77371513       3.67164478      12.65375101
C        2.47421663       1.58086941      12.79892994
C        1.84697282       0.51871897      12.18274718
C        1.84977933       0.41477377      10.77756473
C        3.76870455       3.77786151      14.13335855
C        2.46882236       1.68640716      14.27861036
N        3.11648494       2.77903839      14.86091835
O        4.31621067       4.71094134      14.74723293
O        1.91659751       0.85001459      15.01533167
H        1.34016821      -0.59026922       8.42551315
H        1.36497708      -0.73989633       5.96974238
H        4.93901155       5.19780637       8.02404855
H        4.93171565       4.99629617       5.57161500
H        3.16002167       1.89452987       2.50492604
H        4.93203924       5.33538554       9.93745844
H        4.90725162       5.48512997      12.39342178
H        1.34160517      -0.25173090      12.79134230
H        1.33421591      -0.45302486      10.33881335
H        3.11301515       2.85044656      15.85813551
