80
Dimer: struct; Energy: -4906.06228 eV
C       -1.29972200       1.48833600      -0.03228100
C       -0.45010500       2.63965400       0.01843500
C        0.99654200       2.45238200       0.05441800
C       -0.76903400       0.15867800      -0.04877100
C        0.67752200      -0.02870400      -0.01297900
C        1.52709100       1.12265000       0.03785500
C        2.93347700       0.94084900       0.07277000
C        3.48023700      -0.37253000       0.05696900
C        3.79427800       2.07240500       0.12351100
C        5.26507800       1.88272800       0.16006300
C        1.24802600      -1.29258500      -0.02698300
C        2.64560500      -1.46904700       0.00777700
C        1.86805800       3.52983300       0.10418700
C        3.26457400       3.34539700       0.13880400
C        4.95087500      -0.56291500       0.09346700
N        5.75909100       0.57580800       0.14293500
O        6.06925500       2.83065500       0.20492200
O        5.48910000      -1.68427500       0.08194900
C       -1.02041300       3.90352800       0.03216900
C       -2.41794600       4.08003500      -0.00262400
C       -2.70602800       1.67000700      -0.06716000
C       -3.25245200       2.98347100      -0.05156500
C       -3.56691500       0.53850500      -0.11766500
C       -3.03687800      -0.73433100      -0.13279200
C       -1.64041100      -0.91883000      -0.09829200
C       -4.72314700       3.17392200      -0.08803700
C       -5.03773600       0.72818300      -0.15412500
N       -5.53143900       2.03522700      -0.13722100
O       -5.26133100       4.29529300      -0.07673500
O       -5.84203300      -0.21964700      -0.19870900
H        0.62972700      -2.20233100      -0.06573200
H        3.07286500      -2.48716200      -0.00439800
H        1.49989900       4.56697900       0.11841200
H        3.93550500       4.22152900       0.17822500
H        6.75033500       0.44779700       0.16755800
H       -0.40199700       4.81321100       0.07071000
H       -2.84532000       5.09816700       0.00933800
H       -3.70773700      -1.61056600      -0.17200800
H       -1.27202900      -1.95588300      -0.11238600
H       -6.52266300       2.16338500      -0.16179200
C        1.29853143       5.76559302       7.30132262
C        1.52753755       7.13904563       7.63469688
C        1.60908614       8.12502393       6.56215330
C        1.14726956       5.33313216       5.94486048
C        1.22861122       6.31899280       4.87230294
C        1.45773642       7.69241804       5.20572815
C        1.53698063       8.65112743       4.16323648
C        1.38912085       8.24119975       2.80888890
C        1.76416233      10.02064809       4.47432105
C        1.84712778      11.02354817       3.38442462
C        1.08961235       5.95836155       3.54050321
C        1.16892890       6.91371687       2.50774996
C        1.82929997       9.46864526       6.82503227
C        1.90746491      10.41815892       5.78686756
C        1.47193990       9.24353402       1.71855790
N        1.69623530      10.57743837       2.06890206
O        2.04370264      12.23420673       3.59165093
O        1.35103003       8.94802770       0.51634166
C        1.66627711       7.49985323       8.96638248
C        1.58693543       6.54456535       9.99914274
C        1.21931105       4.80685862       8.34366132
C        1.36699268       5.21712086       9.69787146
C        0.99236580       3.43727948       8.03265847
C        0.84926234       3.04010367       6.72000760
C        0.92730137       3.98955320       5.68183337
C        1.28420465       4.21478171      10.78828787
C        0.90949070       2.43435352       9.12256339
N        1.06019064       2.88080466      10.43799614
O        1.40490360       4.51035088      11.99049971
O        0.71319454       1.22363320       8.91547106
H        0.91247969       4.91358894       3.24300173
H        1.05454460       6.59855712       1.45568150
H        1.95080165       9.84089570       7.85366348
H        2.08370766      11.48192499       6.02488007
H        1.75211723      11.25323017       1.33423178
H        1.84320147       8.54469921       9.26377374
H        1.70110517       6.85967263      11.05131053
H        0.67321389       1.97630441       6.48185737
H        0.80595132       3.61751761       4.65312226
H        1.00437892       2.20511527      11.17276285
