80
Dimer: struct; Energy: -4906.06228 eV
C       -1.29972200       1.48833600      -0.03228100
C       -0.45010500       2.63965400       0.01843500
C        0.99654200       2.45238200       0.05441800
C       -0.76903400       0.15867800      -0.04877100
C        0.67752200      -0.02870400      -0.01297900
C        1.52709100       1.12265000       0.03785500
C        2.93347700       0.94084900       0.07277000
C        3.48023700      -0.37253000       0.05696900
C        3.79427800       2.07240500       0.12351100
C        5.26507800       1.88272800       0.16006300
C        1.24802600      -1.29258500      -0.02698300
C        2.64560500      -1.46904700       0.00777700
C        1.86805800       3.52983300       0.10418700
C        3.26457400       3.34539700       0.13880400
C        4.95087500      -0.56291500       0.09346700
N        5.75909100       0.57580800       0.14293500
O        6.06925500       2.83065500       0.20492200
O        5.48910000      -1.68427500       0.08194900
C       -1.02041300       3.90352800       0.03216900
C       -2.41794600       4.08003500      -0.00262400
C       -2.70602800       1.67000700      -0.06716000
C       -3.25245200       2.98347100      -0.05156500
C       -3.56691500       0.53850500      -0.11766500
C       -3.03687800      -0.73433100      -0.13279200
C       -1.64041100      -0.91883000      -0.09829200
C       -4.72314700       3.17392200      -0.08803700
C       -5.03773600       0.72818300      -0.15412500
N       -5.53143900       2.03522700      -0.13722100
O       -5.26133100       4.29529300      -0.07673500
O       -5.84203300      -0.21964700      -0.19870900
H        0.62972700      -2.20233100      -0.06573200
H        3.07286500      -2.48716200      -0.00439800
H        1.49989900       4.56697900       0.11841200
H        3.93550500       4.22152900       0.17822500
H        6.75033500       0.44779700       0.16755800
H       -0.40199700       4.81321100       0.07071000
H       -2.84532000       5.09816700       0.00933800
H       -3.70773700      -1.61056600      -0.17200800
H       -1.27202900      -1.95588300      -0.11238600
H       -6.52266300       2.16338500      -0.16179200
C        2.91489568       4.29559182       7.87381484
C        2.70386408       4.37919019       6.46015601
C        3.85478160       4.30873336       5.56596486
C        4.22381156       4.14468742       8.43404618
C        5.37472399       4.07403798       7.53999553
C        5.16364495       4.15775956       6.12634637
C        6.28234241       4.08921696       5.25685793
C        7.59112014       3.93920830       5.79422077
C        6.09310473       4.17063145       3.84918866
C        7.26272551       4.09902133       2.93955947
C        6.66542006       3.92805553       8.02564859
C        7.77415476       3.86032366       7.15864575
C        3.71114032       4.38440033       4.18880857
C        4.82474079       4.31598982       3.32817746
C        8.76112142       3.86750112       4.88520495
N        8.52979802       3.95153873       3.50978595
O        7.16272487       4.16427744       1.70140758
O        9.92885707       3.73684252       5.29335790
C        1.41328388       4.52489097       5.97436659
C        0.30454647       4.59259048       6.84130481
C        1.79634963       4.36415530       8.74333841
C        0.48772742       4.51394403       8.20567557
C        1.98551212       4.28298522      10.15103260
C        3.25401607       4.13778266      10.67169898
C        4.36761505       4.06925407       9.81114605
C       -0.68235786       4.58568570       9.11468555
C        0.81588496       4.35468830      11.06067675
N       -0.45107956       4.50193766      10.49014109
O       -1.85009380       4.71612759       8.70649397
O        0.91576007       4.28972083      12.29884770
H        6.86953297       3.85994054       9.10506101
H        8.79110924       3.74389461       7.57277780
H        2.72243765       4.50054913       3.71934962
H        4.68134639       4.37887737       2.23511163
H        9.31818739       3.90325254       2.89686799
H        1.20927702       4.59278676       4.89491382
H       -0.71252101       4.70881612       6.42723991
H        3.39755387       4.07508672      11.76478799
H        5.35642153       3.95322848      10.28038233
H       -1.23955348       4.55028546      11.10294170
