80
Dimer: struct; Energy: -4906.06228 eV
C       -1.29972200       1.48833600      -0.03228100
C       -0.45010500       2.63965400       0.01843500
C        0.99654200       2.45238200       0.05441800
C       -0.76903400       0.15867800      -0.04877100
C        0.67752200      -0.02870400      -0.01297900
C        1.52709100       1.12265000       0.03785500
C        2.93347700       0.94084900       0.07277000
C        3.48023700      -0.37253000       0.05696900
C        3.79427800       2.07240500       0.12351100
C        5.26507800       1.88272800       0.16006300
C        1.24802600      -1.29258500      -0.02698300
C        2.64560500      -1.46904700       0.00777700
C        1.86805800       3.52983300       0.10418700
C        3.26457400       3.34539700       0.13880400
C        4.95087500      -0.56291500       0.09346700
N        5.75909100       0.57580800       0.14293500
O        6.06925500       2.83065500       0.20492200
O        5.48910000      -1.68427500       0.08194900
C       -1.02041300       3.90352800       0.03216900
C       -2.41794600       4.08003500      -0.00262400
C       -2.70602800       1.67000700      -0.06716000
C       -3.25245200       2.98347100      -0.05156500
C       -3.56691500       0.53850500      -0.11766500
C       -3.03687800      -0.73433100      -0.13279200
C       -1.64041100      -0.91883000      -0.09829200
C       -4.72314700       3.17392200      -0.08803700
C       -5.03773600       0.72818300      -0.15412500
N       -5.53143900       2.03522700      -0.13722100
O       -5.26133100       4.29529300      -0.07673500
O       -5.84203300      -0.21964700      -0.19870900
H        0.62972700      -2.20233100      -0.06573200
H        3.07286500      -2.48716200      -0.00439800
H        1.49989900       4.56697900       0.11841200
H        3.93550500       4.22152900       0.17822500
H        6.75033500       0.44779700       0.16755800
H       -0.40199700       4.81321100       0.07071000
H       -2.84532000       5.09816700       0.00933800
H       -3.70773700      -1.61056600      -0.17200800
H       -1.27202900      -1.95588300      -0.11238600
H       -6.52266300       2.16338500      -0.16179200
C        0.57360572       7.54674317       5.25469609
C        0.42841432       8.47351159       6.33634947
C        0.76074737       9.87727029       6.11687421
C        1.03568867       7.95940340       3.96392773
C        1.36785867       9.36309181       3.74429329
C        1.22275976      10.28979830       4.82601831
C        1.54570547      11.65452152       4.61287792
C        2.00639302      12.08428815       3.33724937
C        1.40819158      12.59062993       5.67531049
C        1.74583262      14.01789144       5.45284883
C        1.81978895       9.82016808       2.51551080
C        2.13954594      11.17669126       2.30772611
C        0.63991935      10.81949891       7.12708387
C        0.96169049      12.17432139       6.91169749
C        2.34416261      13.51133824       3.11410273
N        2.19449646      14.39644583       4.18486641
O        1.64684723      14.88355971       6.34059818
O        2.75138651      13.94831070       2.02300657
C       -0.02373508       8.01666832       7.56503677
C       -0.34352853       6.66019921       7.77285271
C        0.25074534       6.18208234       5.46772062
C       -0.21010435       5.75268479       6.74335591
C        0.38845116       5.24585837       4.40541382
C        0.83511911       5.66248323       3.16921359
C        1.15679024       7.01726966       2.95373364
C       -0.54787833       4.32558024       6.96657533
C        0.05089291       3.81856246       4.62790496
N       -0.39796578       3.44035754       5.89592677
O       -0.95530189       3.88868152       8.05761530
O        0.15008866       2.95274293       3.74033533
H        1.94470379       9.13991344       1.65930823
H        2.49731067      11.51319728       1.31877435
H        0.28848826      10.54251354       8.13266356
H        0.85609090      12.90347439       7.73419025
H        2.42209081      15.35833369       4.03476529
H       -0.14880764       8.69706409       8.42111233
H       -0.70151797       6.32361430       8.76176046
H        0.94095390       4.93336167       2.34668200
H        1.50835509       7.29446292       1.94827408
H       -0.62555072       2.47849403       6.04618292
