80
Dimer: struct; Energy: -4906.06228 eV
C       -1.29972200       1.48833600      -0.03228100
C       -0.45010500       2.63965400       0.01843500
C        0.99654200       2.45238200       0.05441800
C       -0.76903400       0.15867800      -0.04877100
C        0.67752200      -0.02870400      -0.01297900
C        1.52709100       1.12265000       0.03785500
C        2.93347700       0.94084900       0.07277000
C        3.48023700      -0.37253000       0.05696900
C        3.79427800       2.07240500       0.12351100
C        5.26507800       1.88272800       0.16006300
C        1.24802600      -1.29258500      -0.02698300
C        2.64560500      -1.46904700       0.00777700
C        1.86805800       3.52983300       0.10418700
C        3.26457400       3.34539700       0.13880400
C        4.95087500      -0.56291500       0.09346700
N        5.75909100       0.57580800       0.14293500
O        6.06925500       2.83065500       0.20492200
O        5.48910000      -1.68427500       0.08194900
C       -1.02041300       3.90352800       0.03216900
C       -2.41794600       4.08003500      -0.00262400
C       -2.70602800       1.67000700      -0.06716000
C       -3.25245200       2.98347100      -0.05156500
C       -3.56691500       0.53850500      -0.11766500
C       -3.03687800      -0.73433100      -0.13279200
C       -1.64041100      -0.91883000      -0.09829200
C       -4.72314700       3.17392200      -0.08803700
C       -5.03773600       0.72818300      -0.15412500
N       -5.53143900       2.03522700      -0.13722100
O       -5.26133100       4.29529300      -0.07673500
O       -5.84203300      -0.21964700      -0.19870900
H        0.62972700      -2.20233100      -0.06573200
H        3.07286500      -2.48716200      -0.00439800
H        1.49989900       4.56697900       0.11841200
H        3.93550500       4.22152900       0.17822500
H        6.75033500       0.44779700       0.16755800
H       -0.40199700       4.81321100       0.07071000
H       -2.84532000       5.09816700       0.00933800
H       -3.70773700      -1.61056600      -0.17200800
H       -1.27202900      -1.95588300      -0.11238600
H       -6.52266300       2.16338500      -0.16179200
C        0.97903001      11.09082457       1.47562619
C        0.80697792      12.49446478       1.25169192
C        1.09525449      13.42628087       2.33694235
C        1.42615461      10.57650516       2.73477161
C        1.71462254      11.50818563       3.81997901
C        1.54244029      12.91181151       3.59602532
C        1.82269283      13.81787279       4.65087304
C        2.26818561      13.32637556       5.90949420
C        1.65765845      15.21627671       4.44788995
C        1.95059897      16.16414173       5.55075159
C        2.15064420      11.06767771       5.06050471
C        2.42803805      11.97091819       6.10586754
C        0.94662475      14.79579285       2.17799619
C        1.22593211      15.69283886       3.22812370
C        2.56132236      14.27364229       7.01272185
N        2.38568668      15.63841854       6.77005299
O        1.82595688      17.39641772       5.43569153
O        2.95342900      13.90627145       8.13457661
C        0.37125181      12.93511982       0.01121491
C        0.09388690      12.03194465      -1.03415922
C        0.69879083      10.18473247       0.42093166
C        0.25353667      10.67654001      -0.83759293
C        0.86357127       8.78629502       0.62389486
C        1.29516473       8.31007787       1.84382266
C        1.57458950       9.20704872       2.89392518
C       -0.03965204       9.72927557      -1.94089526
C        0.57053912       7.83841247      -0.47895251
N        0.13569247       8.36445398      -1.69820684
O       -0.43154846      10.09669054      -3.06279815
O        0.69487306       6.60610606      -0.36395206
H        2.29545580       9.99739011       5.27251169
H        2.77396051      11.59241871       7.08379048
H        0.60530191      15.23047800       1.22617543
H        1.09887000      16.77883133       3.07389899
H        2.58316855      16.27711019       7.51344499
H        0.22667571      14.00545671      -0.20073701
H       -0.25185924      12.41037865      -2.01223474
H        1.42207147       7.22406189       1.99822937
H        1.91580737       8.77258621       3.84586823
H       -0.06187147       7.72587531      -2.44167103
