80
Dimer: struct; Energy: -4906.06228 eV
C       -1.29972200       1.48833600      -0.03228100
C       -0.45010500       2.63965400       0.01843500
C        0.99654200       2.45238200       0.05441800
C       -0.76903400       0.15867800      -0.04877100
C        0.67752200      -0.02870400      -0.01297900
C        1.52709100       1.12265000       0.03785500
C        2.93347700       0.94084900       0.07277000
C        3.48023700      -0.37253000       0.05696900
C        3.79427800       2.07240500       0.12351100
C        5.26507800       1.88272800       0.16006300
C        1.24802600      -1.29258500      -0.02698300
C        2.64560500      -1.46904700       0.00777700
C        1.86805800       3.52983300       0.10418700
C        3.26457400       3.34539700       0.13880400
C        4.95087500      -0.56291500       0.09346700
N        5.75909100       0.57580800       0.14293500
O        6.06925500       2.83065500       0.20492200
O        5.48910000      -1.68427500       0.08194900
C       -1.02041300       3.90352800       0.03216900
C       -2.41794600       4.08003500      -0.00262400
C       -2.70602800       1.67000700      -0.06716000
C       -3.25245200       2.98347100      -0.05156500
C       -3.56691500       0.53850500      -0.11766500
C       -3.03687800      -0.73433100      -0.13279200
C       -1.64041100      -0.91883000      -0.09829200
C       -4.72314700       3.17392200      -0.08803700
C       -5.03773600       0.72818300      -0.15412500
N       -5.53143900       2.03522700      -0.13722100
O       -5.26133100       4.29529300      -0.07673500
O       -5.84203300      -0.21964700      -0.19870900
H        0.62972700      -2.20233100      -0.06573200
H        3.07286500      -2.48716200      -0.00439800
H        1.49989900       4.56697900       0.11841200
H        3.93550500       4.22152900       0.17822500
H        6.75033500       0.44779700       0.16755800
H       -0.40199700       4.81321100       0.07071000
H       -2.84532000       5.09816700       0.00933800
H       -3.70773700      -1.61056600      -0.17200800
H       -1.27202900      -1.95588300      -0.11238600
H       -6.52266300       2.16338500      -0.16179200
C       10.21800155       8.18115026       0.74635676
C        9.91757635       9.48855035       1.24676058
C        8.52351968       9.86335422       1.45955431
C        9.18844915       7.23161890       0.44919664
C        7.79444228       7.60622408       0.66211245
C        7.49406782       8.91368213       1.16240861
C        6.13891976       9.27825095       1.36942442
C        5.10143334       8.34865670       1.08022377
C        5.82017977      10.57282786       1.86585915
C        4.40314788      10.95449312       2.08246545
C        6.75567999       6.72808973       0.39207712
C        5.41074647       7.09398338       0.59907908
C        8.17279105      11.11526217       1.94187544
C        6.82554377      11.47391579       2.14623852
C        3.68426015       8.72963919       1.29661962
N        3.41633962      10.01091225       1.78540197
O        4.06050252      12.06978966       2.51372680
O        2.73344937       7.96241342       1.06297340
C       10.95617531      10.36664744       1.51708453
C       12.30108775      10.00079630       1.31013715
C       11.57302095       7.81651292       0.53928310
C       12.61025060       8.74622297       0.82877222
C       11.89184593       6.52204017       0.04262942
C       10.88623285       5.62126789      -0.23778308
C        9.53901176       5.97980597      -0.03334240
C       14.02750111       8.36528607       0.61236137
C       13.30889130       6.14040291      -0.17406598
N       14.29548368       7.08411669       0.12330955
O       14.97829328       9.13245449       0.84621931
O       13.65166773       5.02524968      -0.60557577
H        6.94478045       5.71461685       0.00665961
H        4.60338901       6.37463249       0.37554892
H        8.93416332      11.87290832       2.18208327
H        6.57471206      12.47791869       2.53142852
H        2.46125972      10.26797870       1.93133690
H       10.76695615      11.38003022       1.90269880
H       13.10856973      10.72004026       1.53384539
H       11.13694325       4.61728040      -0.62318012
H        8.77746666       5.22236890      -0.27359440
H       15.25060264       6.82720249      -0.02262224
