80
Dimer: struct; Energy: -4906.06228 eV
C       -1.29972200       1.48833600      -0.03228100
C       -0.45010500       2.63965400       0.01843500
C        0.99654200       2.45238200       0.05441800
C       -0.76903400       0.15867800      -0.04877100
C        0.67752200      -0.02870400      -0.01297900
C        1.52709100       1.12265000       0.03785500
C        2.93347700       0.94084900       0.07277000
C        3.48023700      -0.37253000       0.05696900
C        3.79427800       2.07240500       0.12351100
C        5.26507800       1.88272800       0.16006300
C        1.24802600      -1.29258500      -0.02698300
C        2.64560500      -1.46904700       0.00777700
C        1.86805800       3.52983300       0.10418700
C        3.26457400       3.34539700       0.13880400
C        4.95087500      -0.56291500       0.09346700
N        5.75909100       0.57580800       0.14293500
O        6.06925500       2.83065500       0.20492200
O        5.48910000      -1.68427500       0.08194900
C       -1.02041300       3.90352800       0.03216900
C       -2.41794600       4.08003500      -0.00262400
C       -2.70602800       1.67000700      -0.06716000
C       -3.25245200       2.98347100      -0.05156500
C       -3.56691500       0.53850500      -0.11766500
C       -3.03687800      -0.73433100      -0.13279200
C       -1.64041100      -0.91883000      -0.09829200
C       -4.72314700       3.17392200      -0.08803700
C       -5.03773600       0.72818300      -0.15412500
N       -5.53143900       2.03522700      -0.13722100
O       -5.26133100       4.29529300      -0.07673500
O       -5.84203300      -0.21964700      -0.19870900
H        0.62972700      -2.20233100      -0.06573200
H        3.07286500      -2.48716200      -0.00439800
H        1.49989900       4.56697900       0.11841200
H        3.93550500       4.22152900       0.17822500
H        6.75033500       0.44779700       0.16755800
H       -0.40199700       4.81321100       0.07071000
H       -2.84532000       5.09816700       0.00933800
H       -3.70773700      -1.61056600      -0.17200800
H       -1.27202900      -1.95588300      -0.11238600
H       -6.52266300       2.16338500      -0.16179200
C        4.23981443      10.70985962       2.94395105
C        3.97415947      11.25262594       1.64595781
C        4.20038421      12.67507300       1.41224892
C        4.72131965      11.52420358       4.01860854
C        4.94774435      12.94654930       3.78498096
C        4.68196045      13.48928708       2.48699704
C        4.90187604      14.87207084       2.25953618
C        5.38022740      15.69792778       3.31466691
C        4.64358979      15.43012125       0.97663324
C        4.87340956      16.87613933       0.73834635
C        5.41322356      13.78355000       4.78788925
C        5.63046778      15.15669245       4.55797863
C        3.96043206      13.25588994       0.17612903
C        4.18000331      14.62988508      -0.04612698
C        5.61028323      17.14394860       3.07706900
N        5.34363507      17.65021593       1.80233672
O        4.66659833      17.42281900      -0.35967415
O        6.02696277      17.91712263       3.95789086
C        3.50896535      10.41575428       0.64293359
C        3.29174562       9.04263760       0.87278124
C        4.01991436       9.32719023       3.17151810
C        3.54178042       8.50158694       2.11616166
C        4.27794946       8.76909649       4.45445350
C        4.74138042       9.56964693       5.47701414
C        4.96107383      10.94358534       5.25480193
C        3.31167253       7.05550209       2.35372120
C        4.04803945       7.32307814       4.69276801
N        3.57803323       6.54921743       3.62851889
O        2.89519976       6.28231767       1.47282453
O        4.25454521       6.77632116       5.79080047
H        5.62941071      13.40520343       5.79860678
H        6.00169502      15.80014038       5.37493799
H        3.59006002      12.66435396      -0.67494380
H        3.98052260      15.06619945      -1.04068564
H        5.49858482      18.62479807       1.64190600
H        3.29300992      10.79418171      -0.36781012
H        2.92069856       8.39903169       0.05578680
H        4.94070782       9.13346942       6.47169762
H        5.33132635      11.53533878       6.10575657
H        3.42299397       5.57463062       3.78882046
