80
Dimer: struct; Energy: -4906.06228 eV
C       -1.29972200       1.48833600      -0.03228100
C       -0.45010500       2.63965400       0.01843500
C        0.99654200       2.45238200       0.05441800
C       -0.76903400       0.15867800      -0.04877100
C        0.67752200      -0.02870400      -0.01297900
C        1.52709100       1.12265000       0.03785500
C        2.93347700       0.94084900       0.07277000
C        3.48023700      -0.37253000       0.05696900
C        3.79427800       2.07240500       0.12351100
C        5.26507800       1.88272800       0.16006300
C        1.24802600      -1.29258500      -0.02698300
C        2.64560500      -1.46904700       0.00777700
C        1.86805800       3.52983300       0.10418700
C        3.26457400       3.34539700       0.13880400
C        4.95087500      -0.56291500       0.09346700
N        5.75909100       0.57580800       0.14293500
O        6.06925500       2.83065500       0.20492200
O        5.48910000      -1.68427500       0.08194900
C       -1.02041300       3.90352800       0.03216900
C       -2.41794600       4.08003500      -0.00262400
C       -2.70602800       1.67000700      -0.06716000
C       -3.25245200       2.98347100      -0.05156500
C       -3.56691500       0.53850500      -0.11766500
C       -3.03687800      -0.73433100      -0.13279200
C       -1.64041100      -0.91883000      -0.09829200
C       -4.72314700       3.17392200      -0.08803700
C       -5.03773600       0.72818300      -0.15412500
N       -5.53143900       2.03522700      -0.13722100
O       -5.26133100       4.29529300      -0.07673500
O       -5.84203300      -0.21964700      -0.19870900
H        0.62972700      -2.20233100      -0.06573200
H        3.07286500      -2.48716200      -0.00439800
H        1.49989900       4.56697900       0.11841200
H        3.93550500       4.22152900       0.17822500
H        6.75033500       0.44779700       0.16755800
H       -0.40199700       4.81321100       0.07071000
H       -2.84532000       5.09816700       0.00933800
H       -3.70773700      -1.61056600      -0.17200800
H       -1.27202900      -1.95588300      -0.11238600
H       -6.52266300       2.16338500      -0.16179200
C        5.10141054       6.28188817       5.67980971
C        4.78455694       6.31855902       4.28402558
C        5.24078428       7.44947895       3.48275794
C        5.85350770       7.32404619       6.31079989
C        6.30992110       8.45486341       5.50964038
C        5.99293765       8.49154066       4.11388113
C        6.43640965       9.59082153       3.33471080
C        7.18518352      10.63633958       3.94330777
C        6.13142423       9.64543456       1.94619602
C        6.59497554      10.79485298       1.13101290
C        7.04183117       9.49277488       6.06651877
C        7.48060823      10.58306475       5.28914059
C        4.96362216       7.53869550       2.12697798
C        5.40576213       8.63222657       1.35615118
C        7.64904972      11.78597774       3.12874351
N        7.32729124      11.79931649       1.76909509
O        6.36066535      10.90020804      -0.08606460
O        8.30660069      12.72984924       3.60203028
C        4.05293462       5.28065513       3.72697834
C        3.61417854       4.19035834       4.50428766
C        4.65798788       5.18274763       6.45902975
C        3.90944552       4.13732054       5.85011547
C        4.96272436       5.12816361       7.84760104
C        5.68826883       6.14160875       8.43734141
C        6.13052271       7.23507942       7.66657321
C        3.44551199       2.98762157       6.66467273
C        4.49908839       3.97877552       8.66281279
N        3.76699497       2.97435591       8.02439845
O        2.78815152       2.04366621       6.19131433
O        4.73308786       3.87342301       9.87994393
H        7.30587995       9.50177654       7.13498971
H        8.06193974      11.39597878       5.75869565
H        4.38859745       6.75868646       1.60510853
H        5.17074509       8.67769964       0.27818601
H        7.63978979      12.57405103       1.21983302
H        3.78912359       5.27166472       2.65844204
H        3.03298906       3.37724985       4.03475836
H        5.92317707       6.09634042       9.51537033
H        6.70545684       8.01526294       8.18825059
H        3.45439249       2.19958638       8.57354788
