80
Dimer: struct; Energy: -4906.06228 eV
C       -1.29972200       1.48833600      -0.03228100
C       -0.45010500       2.63965400       0.01843500
C        0.99654200       2.45238200       0.05441800
C       -0.76903400       0.15867800      -0.04877100
C        0.67752200      -0.02870400      -0.01297900
C        1.52709100       1.12265000       0.03785500
C        2.93347700       0.94084900       0.07277000
C        3.48023700      -0.37253000       0.05696900
C        3.79427800       2.07240500       0.12351100
C        5.26507800       1.88272800       0.16006300
C        1.24802600      -1.29258500      -0.02698300
C        2.64560500      -1.46904700       0.00777700
C        1.86805800       3.52983300       0.10418700
C        3.26457400       3.34539700       0.13880400
C        4.95087500      -0.56291500       0.09346700
N        5.75909100       0.57580800       0.14293500
O        6.06925500       2.83065500       0.20492200
O        5.48910000      -1.68427500       0.08194900
C       -1.02041300       3.90352800       0.03216900
C       -2.41794600       4.08003500      -0.00262400
C       -2.70602800       1.67000700      -0.06716000
C       -3.25245200       2.98347100      -0.05156500
C       -3.56691500       0.53850500      -0.11766500
C       -3.03687800      -0.73433100      -0.13279200
C       -1.64041100      -0.91883000      -0.09829200
C       -4.72314700       3.17392200      -0.08803700
C       -5.03773600       0.72818300      -0.15412500
N       -5.53143900       2.03522700      -0.13722100
O       -5.26133100       4.29529300      -0.07673500
O       -5.84203300      -0.21964700      -0.19870900
H        0.62972700      -2.20233100      -0.06573200
H        3.07286500      -2.48716200      -0.00439800
H        1.49989900       4.56697900       0.11841200
H        3.93550500       4.22152900       0.17822500
H        6.75033500       0.44779700       0.16755800
H       -0.40199700       4.81321100       0.07071000
H       -2.84532000       5.09816700       0.00933800
H       -3.70773700      -1.61056600      -0.17200800
H       -1.27202900      -1.95588300      -0.11238600
H       -6.52266300       2.16338500      -0.16179200
C        4.52623361       9.43840635       3.88509493
C        5.01244382      10.76799867       3.67123009
C        5.35502390      11.18845745       2.31660600
C        4.36686167       8.51031930       2.80660196
C        4.70921623       8.93070083       1.45198391
C        5.19553429      10.26027052       1.23819242
C        5.52856976      10.66927112      -0.07862121
C        5.37701826       9.76165534      -1.16371398
C        6.01345746      11.98634277      -0.31138322
C        6.36187406      12.41445500      -1.68829711
C        4.57514173       8.07511945       0.36890006
C        4.90700775       8.48517449      -0.93773453
C        5.83053458      12.46339281       2.04949707
C        6.16038588      12.86615488       0.74012594
C        5.72520057      10.18910426      -2.54081644
N        6.19774211      11.49119354      -2.72416925
O        6.79020723      13.55115538      -1.95610584
O        5.61478478       9.44287651      -3.52986626
C        5.14630755      11.62373238       4.75410480
C        4.81443038      11.21374466       6.06071545
C        4.19322500       9.02931566       5.20178303
C        4.34467875       9.93720223       6.28659353
C        3.70855172       7.71218726       5.43467469
C        3.56189244       6.83259859       4.38296448
C        3.89160810       7.23531990       3.07359313
C        3.99652092       9.50977953       7.66377962
C        3.36021763       7.28404070       6.81161891
N        3.52423647       8.20760123       7.84724731
O        4.10674372      10.25609605       8.65277166
O        2.93213652       6.14729556       7.07961175
H        4.20491656       7.04586304       0.49136436
H        4.79041588       7.78298175      -1.78188451
H        5.96710781      13.20567879       2.85060536
H        6.53701064      13.88770620       0.55601624
H        6.43251013      11.77956818      -3.65222195
H        5.51635046      12.65304236       4.63148291
H        4.93079621      11.91596697       6.90494719
H        3.18545854       5.81092841       4.56698899
H        3.75523158       6.49316790       2.27234740
H        3.28955255       7.91934693       8.77535621
