80
Dimer: struct; Energy: -4906.06228 eV
C       -1.29972200       1.48833600      -0.03228100
C       -0.45010500       2.63965400       0.01843500
C        0.99654200       2.45238200       0.05441800
C       -0.76903400       0.15867800      -0.04877100
C        0.67752200      -0.02870400      -0.01297900
C        1.52709100       1.12265000       0.03785500
C        2.93347700       0.94084900       0.07277000
C        3.48023700      -0.37253000       0.05696900
C        3.79427800       2.07240500       0.12351100
C        5.26507800       1.88272800       0.16006300
C        1.24802600      -1.29258500      -0.02698300
C        2.64560500      -1.46904700       0.00777700
C        1.86805800       3.52983300       0.10418700
C        3.26457400       3.34539700       0.13880400
C        4.95087500      -0.56291500       0.09346700
N        5.75909100       0.57580800       0.14293500
O        6.06925500       2.83065500       0.20492200
O        5.48910000      -1.68427500       0.08194900
C       -1.02041300       3.90352800       0.03216900
C       -2.41794600       4.08003500      -0.00262400
C       -2.70602800       1.67000700      -0.06716000
C       -3.25245200       2.98347100      -0.05156500
C       -3.56691500       0.53850500      -0.11766500
C       -3.03687800      -0.73433100      -0.13279200
C       -1.64041100      -0.91883000      -0.09829200
C       -4.72314700       3.17392200      -0.08803700
C       -5.03773600       0.72818300      -0.15412500
N       -5.53143900       2.03522700      -0.13722100
O       -5.26133100       4.29529300      -0.07673500
O       -5.84203300      -0.21964700      -0.19870900
H        0.62972700      -2.20233100      -0.06573200
H        3.07286500      -2.48716200      -0.00439800
H        1.49989900       4.56697900       0.11841200
H        3.93550500       4.22152900       0.17822500
H        6.75033500       0.44779700       0.16755800
H       -0.40199700       4.81321100       0.07071000
H       -2.84532000       5.09816700       0.00933800
H       -3.70773700      -1.61056600      -0.17200800
H       -1.27202900      -1.95588300      -0.11238600
H       -6.52266300       2.16338500      -0.16179200
C       10.73463262       5.10831896       4.93007359
C       10.05389124       4.19944153       5.80213281
C        9.55342661       2.93946284       5.26255707
C       10.93785681       4.81490586       3.54353085
C       10.43762602       3.55494614       3.00391244
C        9.75678692       2.64615536       3.87599331
C        9.27023554       1.42117795       3.35169344
C        9.46239463       1.11125007       1.97649158
C        8.59108514       0.50508462       4.20228132
C        8.08208674      -0.77604718       3.65438718
C       10.60547180       3.21728765       1.66941604
C       10.12071001       1.99940440       1.15236617
C        8.88673880       2.02109531       6.05945492
C        8.40476701       0.80525443       5.53514008
C        8.95370502      -0.16965657       1.42797746
N        8.29261241      -1.03998745       2.29851234
O        7.48108421      -1.61725103       4.34608843
O        9.09025143      -0.49770732       0.23591838
C        9.88621641       4.53681343       7.13662997
C       10.37097803       5.75463523       7.65371798
C       11.22116033       6.33325788       5.45422327
C       11.02903856       6.64278635       6.82946558
C       11.90011683       7.24951807       4.60365917
C       12.08612283       6.94909463       3.27083245
C       11.60429060       5.73325868       2.74649397
C       11.53770680       7.92374551       7.37805087
C       12.40904085       8.53070653       5.15154051
N       12.19856671       8.79425777       6.50750282
O       11.40133420       8.25166880       8.57015469
O       13.00981483       9.37211773       4.45990410
H       11.12305762       3.88827479       0.96705282
H       10.26837025       1.75610663       0.08547342
H        8.71049059       2.20932657       7.12946464
H        7.87720010       0.09201180       6.19261085
H        7.94963444      -1.90338377       1.92909298
H        9.36879103       3.86564436       7.83894754
H       10.22354317       5.99794538       8.72069854
H       12.61351122       7.66237172       2.61320433
H       11.78031545       5.54486739       1.67649077
H       12.54144929       9.65763642       6.87704588
