80
Dimer: struct; Energy: -4906.06228 eV
C       -1.29972200       1.48833600      -0.03228100
C       -0.45010500       2.63965400       0.01843500
C        0.99654200       2.45238200       0.05441800
C       -0.76903400       0.15867800      -0.04877100
C        0.67752200      -0.02870400      -0.01297900
C        1.52709100       1.12265000       0.03785500
C        2.93347700       0.94084900       0.07277000
C        3.48023700      -0.37253000       0.05696900
C        3.79427800       2.07240500       0.12351100
C        5.26507800       1.88272800       0.16006300
C        1.24802600      -1.29258500      -0.02698300
C        2.64560500      -1.46904700       0.00777700
C        1.86805800       3.52983300       0.10418700
C        3.26457400       3.34539700       0.13880400
C        4.95087500      -0.56291500       0.09346700
N        5.75909100       0.57580800       0.14293500
O        6.06925500       2.83065500       0.20492200
O        5.48910000      -1.68427500       0.08194900
C       -1.02041300       3.90352800       0.03216900
C       -2.41794600       4.08003500      -0.00262400
C       -2.70602800       1.67000700      -0.06716000
C       -3.25245200       2.98347100      -0.05156500
C       -3.56691500       0.53850500      -0.11766500
C       -3.03687800      -0.73433100      -0.13279200
C       -1.64041100      -0.91883000      -0.09829200
C       -4.72314700       3.17392200      -0.08803700
C       -5.03773600       0.72818300      -0.15412500
N       -5.53143900       2.03522700      -0.13722100
O       -5.26133100       4.29529300      -0.07673500
O       -5.84203300      -0.21964700      -0.19870900
H        0.62972700      -2.20233100      -0.06573200
H        3.07286500      -2.48716200      -0.00439800
H        1.49989900       4.56697900       0.11841200
H        3.93550500       4.22152900       0.17822500
H        6.75033500       0.44779700       0.16755800
H       -0.40199700       4.81321100       0.07071000
H       -2.84532000       5.09816700       0.00933800
H       -3.70773700      -1.61056600      -0.17200800
H       -1.27202900      -1.95588300      -0.11238600
H       -6.52266300       2.16338500      -0.16179200
C        2.07469211       3.01438958       4.86857414
C        0.85405870       3.74603592       5.02574289
C       -0.40049731       3.13112948       4.60487190
C        2.09816115       1.69628776       4.31005030
C        0.84371569       1.08124002       3.88933638
C       -0.37687791       1.81298004       4.04642050
C       -1.59662421       1.21538218       3.63741196
C       -1.59414721      -0.09370123       3.08022702
C       -2.81991700       1.92647809       3.78529486
C       -4.09569967       1.30191100       3.35767286
C        0.80543301      -0.19239894       3.34212130
C       -0.40828920      -0.78262923       2.93705246
C       -1.61286007       3.79199577       4.73273914
C       -2.82254287       3.19521902       4.32531190
C       -2.86951243      -0.71884421       2.65244845
N       -4.04733849       0.01492560       2.81572096
O       -5.19663549       1.87163218       3.46080711
O       -2.93286633      -1.85888649       2.15893357
C        0.89214203       5.01949718       5.57315809
C        2.10580194       5.60973790       5.97826213
C        3.29441792       3.61186453       5.27748745
C        3.29158261       4.92082935       5.83481422
C        4.51778807       2.90093732       5.12942690
C        4.52006119       1.63228867       4.58923714
C        3.31043823       1.03542694       4.18190610
C        4.56697689       5.54605778       6.26260438
C        5.79359712       3.52554893       5.55696998
N        5.74488503       4.81245039       6.09909929
O        4.63027135       6.68600966       6.75631097
O        6.89462815       2.95605996       5.45364480
H        1.72129820      -0.78719096       3.20483934
H       -0.40950513      -1.79849266       2.50429677
H       -1.67313626       4.80583642       5.15689611
H       -3.77377144       3.74441621       4.43869778
H       -4.90708291      -0.40615805       2.52747478
H       -0.02382328       5.61411395       5.71058213
H        2.10709882       6.62556751       6.41124356
H        5.47127992       1.08306202       4.47561281
H        3.37048422       0.02164620       3.75761144
H        6.60455863       5.23367437       6.38734380
