80
Dimer: struct; Energy: -4906.06228 eV
C       -1.29972200       1.48833600      -0.03228100
C       -0.45010500       2.63965400       0.01843500
C        0.99654200       2.45238200       0.05441800
C       -0.76903400       0.15867800      -0.04877100
C        0.67752200      -0.02870400      -0.01297900
C        1.52709100       1.12265000       0.03785500
C        2.93347700       0.94084900       0.07277000
C        3.48023700      -0.37253000       0.05696900
C        3.79427800       2.07240500       0.12351100
C        5.26507800       1.88272800       0.16006300
C        1.24802600      -1.29258500      -0.02698300
C        2.64560500      -1.46904700       0.00777700
C        1.86805800       3.52983300       0.10418700
C        3.26457400       3.34539700       0.13880400
C        4.95087500      -0.56291500       0.09346700
N        5.75909100       0.57580800       0.14293500
O        6.06925500       2.83065500       0.20492200
O        5.48910000      -1.68427500       0.08194900
C       -1.02041300       3.90352800       0.03216900
C       -2.41794600       4.08003500      -0.00262400
C       -2.70602800       1.67000700      -0.06716000
C       -3.25245200       2.98347100      -0.05156500
C       -3.56691500       0.53850500      -0.11766500
C       -3.03687800      -0.73433100      -0.13279200
C       -1.64041100      -0.91883000      -0.09829200
C       -4.72314700       3.17392200      -0.08803700
C       -5.03773600       0.72818300      -0.15412500
N       -5.53143900       2.03522700      -0.13722100
O       -5.26133100       4.29529300      -0.07673500
O       -5.84203300      -0.21964700      -0.19870900
H        0.62972700      -2.20233100      -0.06573200
H        3.07286500      -2.48716200      -0.00439800
H        1.49989900       4.56697900       0.11841200
H        3.93550500       4.22152900       0.17822500
H        6.75033500       0.44779700       0.16755800
H       -0.40199700       4.81321100       0.07071000
H       -2.84532000       5.09816700       0.00933800
H       -3.70773700      -1.61056600      -0.17200800
H       -1.27202900      -1.95588300      -0.11238600
H       -6.52266300       2.16338500      -0.16179200
C       10.62755937       2.51175934       5.72757296
C       11.49889322       1.69087029       6.51298546
C       12.65212967       2.30221359       7.16525702
C       10.85656152       3.91565709       5.56471970
C       12.00959847       4.52711269       6.21705795
C       12.88096763       3.70615202       7.00236487
C       14.00210642       4.30025329       7.63662328
C       14.24666292       5.69379586       7.48698448
C       14.87964118       3.50118825       8.42109751
C       16.05221456       4.12207299       9.08452789
C       12.28115524       5.88151449       6.09491540
C       13.39589919       6.46797278       6.72656938
C       13.53009496       1.55699393       7.93774804
C       14.64278653       2.15057670       8.56627717
C       15.41897588       6.31530060       8.15013521
N       16.25466177       5.49367171       8.91099348
O       16.85523604       3.47771760       9.78255454
O       15.68610862       7.52663535       8.05753246
C       11.22733523       0.33658870       6.63543932
C       10.11261522      -0.24989082       6.00385020
C        9.50648738       1.91779650       5.09328343
C        9.26209194       0.52431879       5.24328611
C        8.62902873       2.71673809       4.30859712
C        8.86626858       4.06727378       4.16351044
C        9.97884396       4.66092333       4.79208537
C        8.08975773      -0.09727003       4.58010784
C        7.45649224       2.09582775       3.64508374
N        7.25418025       0.72425318       3.81899601
O        7.82253360      -1.30855963       4.67290570
O        6.65354837       2.74000150       2.94681128
H       11.63590276       6.54618758       5.50053181
H       13.58825693       7.54926452       6.61227084
H       13.38892927       0.47572653       8.08724149
H       15.32586818       1.53321887       9.17584954
H       17.04488476       5.91228455       9.35806024
H       11.87255148      -0.32794860       7.23002581
H        9.92004454      -1.33119117       6.11826380
H        8.18334951       4.68470896       3.55377869
H       10.12027754       5.74214666       4.64263467
H        6.46402416       0.30549933       3.37194814
