80
Dimer: struct; Energy: -4906.06228 eV
C       -1.29972200       1.48833600      -0.03228100
C       -0.45010500       2.63965400       0.01843500
C        0.99654200       2.45238200       0.05441800
C       -0.76903400       0.15867800      -0.04877100
C        0.67752200      -0.02870400      -0.01297900
C        1.52709100       1.12265000       0.03785500
C        2.93347700       0.94084900       0.07277000
C        3.48023700      -0.37253000       0.05696900
C        3.79427800       2.07240500       0.12351100
C        5.26507800       1.88272800       0.16006300
C        1.24802600      -1.29258500      -0.02698300
C        2.64560500      -1.46904700       0.00777700
C        1.86805800       3.52983300       0.10418700
C        3.26457400       3.34539700       0.13880400
C        4.95087500      -0.56291500       0.09346700
N        5.75909100       0.57580800       0.14293500
O        6.06925500       2.83065500       0.20492200
O        5.48910000      -1.68427500       0.08194900
C       -1.02041300       3.90352800       0.03216900
C       -2.41794600       4.08003500      -0.00262400
C       -2.70602800       1.67000700      -0.06716000
C       -3.25245200       2.98347100      -0.05156500
C       -3.56691500       0.53850500      -0.11766500
C       -3.03687800      -0.73433100      -0.13279200
C       -1.64041100      -0.91883000      -0.09829200
C       -4.72314700       3.17392200      -0.08803700
C       -5.03773600       0.72818300      -0.15412500
N       -5.53143900       2.03522700      -0.13722100
O       -5.26133100       4.29529300      -0.07673500
O       -5.84203300      -0.21964700      -0.19870900
H        0.62972700      -2.20233100      -0.06573200
H        3.07286500      -2.48716200      -0.00439800
H        1.49989900       4.56697900       0.11841200
H        3.93550500       4.22152900       0.17822500
H        6.75033500       0.44779700       0.16755800
H       -0.40199700       4.81321100       0.07071000
H       -2.84532000       5.09816700       0.00933800
H       -3.70773700      -1.61056600      -0.17200800
H       -1.27202900      -1.95588300      -0.11238600
H       -6.52266300       2.16338500      -0.16179200
C        9.27192044       2.77652551       0.10444525
C        9.32727654       1.47225430       0.69246450
C        9.36546455       1.35076415       2.14605830
C        9.25289513       3.96454152       0.90328696
C        9.29089168       3.84317749       2.35681521
C        9.34636579       2.53888156       2.94477979
C        9.38342511       2.42051904       4.35786477
C        9.36516200       3.58923848       5.16898862
C        9.43877469       1.13321120       4.96097915
C        9.47757043       1.00898710       6.43868999
C        9.27460118       4.95851412       3.18072354
C        9.31150322       4.83678669       4.58407482
C        9.41971865       0.11408806       2.77104350
C        9.45645455       0.00037920       4.17503519
C        9.40390155       3.46574045       6.64669027
N        9.45789894       2.18249716       7.19689133
O        9.52644526      -0.08690344       7.02513159
O        9.39041475       4.44855872       7.40902445
C        9.34329739       0.35688243      -0.13125041
C        9.30636255       0.47855609      -1.53456617
C        9.23489691       2.89499837      -1.30853419
C        9.25295488       1.72612446      -2.11934721
C        9.17978331       4.18227223      -1.91174431
C        9.16227049       5.31488210      -1.12550788
C        9.19888914       5.20124479       0.27844933
C        9.21424140       1.84957005      -3.59711851
C        9.14107954       4.30650006      -3.38947600
N        9.16052794       3.13280282      -4.14740012
O        9.22751231       0.86673174      -4.35941466
O        9.09247974       5.40232187      -3.97605569
H        9.23228474       5.97795191       2.76794171
H        9.29742600       5.74204368       5.21618960
H        9.43600671      -0.82221375       2.19269340
H        9.49945213      -0.99728111       4.64634700
H        9.48403363       2.09895082       8.19283046
H        9.38540588      -0.66251903       0.28165933
H        9.32022661      -0.42669415      -2.16679570
H        9.11947777       6.31262855      -1.59672787
H        9.18273274       6.13740912       0.85699767
H        9.13444568       3.21620140      -5.14335073
