80
Dimer: struct; Energy: -4906.06228 eV
C       -1.29972200       1.48833600      -0.03228100
C       -0.45010500       2.63965400       0.01843500
C        0.99654200       2.45238200       0.05441800
C       -0.76903400       0.15867800      -0.04877100
C        0.67752200      -0.02870400      -0.01297900
C        1.52709100       1.12265000       0.03785500
C        2.93347700       0.94084900       0.07277000
C        3.48023700      -0.37253000       0.05696900
C        3.79427800       2.07240500       0.12351100
C        5.26507800       1.88272800       0.16006300
C        1.24802600      -1.29258500      -0.02698300
C        2.64560500      -1.46904700       0.00777700
C        1.86805800       3.52983300       0.10418700
C        3.26457400       3.34539700       0.13880400
C        4.95087500      -0.56291500       0.09346700
N        5.75909100       0.57580800       0.14293500
O        6.06925500       2.83065500       0.20492200
O        5.48910000      -1.68427500       0.08194900
C       -1.02041300       3.90352800       0.03216900
C       -2.41794600       4.08003500      -0.00262400
C       -2.70602800       1.67000700      -0.06716000
C       -3.25245200       2.98347100      -0.05156500
C       -3.56691500       0.53850500      -0.11766500
C       -3.03687800      -0.73433100      -0.13279200
C       -1.64041100      -0.91883000      -0.09829200
C       -4.72314700       3.17392200      -0.08803700
C       -5.03773600       0.72818300      -0.15412500
N       -5.53143900       2.03522700      -0.13722100
O       -5.26133100       4.29529300      -0.07673500
O       -5.84203300      -0.21964700      -0.19870900
H        0.62972700      -2.20233100      -0.06573200
H        3.07286500      -2.48716200      -0.00439800
H        1.49989900       4.56697900       0.11841200
H        3.93550500       4.22152900       0.17822500
H        6.75033500       0.44779700       0.16755800
H       -0.40199700       4.81321100       0.07071000
H       -2.84532000       5.09816700       0.00933800
H       -3.70773700      -1.61056600      -0.17200800
H       -1.27202900      -1.95588300      -0.11238600
H       -6.52266300       2.16338500      -0.16179200
C       -0.21957244       8.67440695       5.95935194
C       -0.18422188       8.56604321       7.38657369
C        0.38487309       9.65982212       8.16691446
C        0.28788824       9.82623394       5.27695154
C        0.85680800      10.92009544       6.05715323
C        0.89223989      10.81162738       7.48436971
C        1.44536946      11.87484243       8.24319359
C        1.95467422      13.02795332       7.58356908
C        1.48961910      11.78576061       9.66237589
C        2.06800050      12.89739223      10.45630042
C        1.36297183      12.05987873       5.45072240
C        1.91161069      13.11395036       6.20802192
C        0.44582811       9.61022083       9.55137896
C        0.99603764      10.66828559      10.30187237
C        2.53313487      14.13991029       8.37684686
N        2.55663692      14.01084470       9.76793995
O        2.13522948      12.87915689      11.69824499
O        2.99385874      15.17292650       7.85927744
C       -0.69056218       7.42651404       7.99312962
C       -1.23922700       6.37246185       7.23589474
C       -0.77260886       7.61130798       5.20047859
C       -1.28200866       6.45846691       5.86038721
C       -0.81668782       7.70019860       3.78127830
C       -0.32288400       8.81774192       3.14211147
C        0.22721934       9.87585936       3.89252737
C       -1.86048206       5.34642089       5.06712322
C       -1.39499329       6.58851284       2.98733935
N       -1.88375989       5.47529704       3.67599763
O       -2.32139046       4.31351826       5.58473144
O       -1.46203886       6.60649178       1.74538736
H        1.35414015      12.18159321       4.35685746
H        2.30763768      14.01015796       5.69887356
H        0.06668676       8.74283642      10.11290487
H        1.03191714      10.60232071      11.40353974
H        2.94647236      14.76013673      10.30286758
H       -0.68186304       7.30500555       9.08702492
H       -1.63548967       5.47625595       7.74498734
H       -0.35852704       8.88372981       2.04040705
H        0.60653052      10.74328780       3.33121303
H       -2.27357946       4.72591073       3.14119478
