80
Dimer: struct; Energy: -4906.06228 eV
C       -1.29972200       1.48833600      -0.03228100
C       -0.45010500       2.63965400       0.01843500
C        0.99654200       2.45238200       0.05441800
C       -0.76903400       0.15867800      -0.04877100
C        0.67752200      -0.02870400      -0.01297900
C        1.52709100       1.12265000       0.03785500
C        2.93347700       0.94084900       0.07277000
C        3.48023700      -0.37253000       0.05696900
C        3.79427800       2.07240500       0.12351100
C        5.26507800       1.88272800       0.16006300
C        1.24802600      -1.29258500      -0.02698300
C        2.64560500      -1.46904700       0.00777700
C        1.86805800       3.52983300       0.10418700
C        3.26457400       3.34539700       0.13880400
C        4.95087500      -0.56291500       0.09346700
N        5.75909100       0.57580800       0.14293500
O        6.06925500       2.83065500       0.20492200
O        5.48910000      -1.68427500       0.08194900
C       -1.02041300       3.90352800       0.03216900
C       -2.41794600       4.08003500      -0.00262400
C       -2.70602800       1.67000700      -0.06716000
C       -3.25245200       2.98347100      -0.05156500
C       -3.56691500       0.53850500      -0.11766500
C       -3.03687800      -0.73433100      -0.13279200
C       -1.64041100      -0.91883000      -0.09829200
C       -4.72314700       3.17392200      -0.08803700
C       -5.03773600       0.72818300      -0.15412500
N       -5.53143900       2.03522700      -0.13722100
O       -5.26133100       4.29529300      -0.07673500
O       -5.84203300      -0.21964700      -0.19870900
H        0.62972700      -2.20233100      -0.06573200
H        3.07286500      -2.48716200      -0.00439800
H        1.49989900       4.56697900       0.11841200
H        3.93550500       4.22152900       0.17822500
H        6.75033500       0.44779700       0.16755800
H       -0.40199700       4.81321100       0.07071000
H       -2.84532000       5.09816700       0.00933800
H       -3.70773700      -1.61056600      -0.17200800
H       -1.27202900      -1.95588300      -0.11238600
H       -6.52266300       2.16338500      -0.16179200
C       11.07093331      10.12350011       4.64539927
C       10.10446474      10.62269372       3.71443282
C        9.16469465       9.69090882       3.09980919
C       11.14054509       8.73555490       4.98986172
C       10.20075969       7.80375533       4.37547560
C        9.23438547       8.30298688       3.44442440
C        8.32063982       7.39735990       2.84684520
C        8.37368980       6.01431571       3.17629177
C        7.35303365       7.87412931       1.91926705
C        6.39730614       6.92739347       1.29409330
C       10.22109044       6.44903739       4.67109711
C        9.31166478       5.55257173       4.07538875
C        8.20745286      10.11703994       2.19150408
C        7.30142909       9.21451822       1.59985606
C        7.41828687       5.06708433       2.55154171
N        6.48473904       5.57801822       1.64612177
O        5.52924804       7.28220563       0.47686503
O        7.41414615       3.84792555       2.79832461
C       10.08383111      11.97734175       3.41893274
C       10.99318838      12.87382533       4.01462587
C       11.98468898      11.02897081       5.24297007
C       11.93124466      12.41193763       4.91349086
C       12.95248293      10.55225696       6.17038191
C       13.00389997       9.21179591       6.48944302
C       12.09786053       8.30926525       5.89793549
C       12.88668138      13.35925047       5.53821849
C       13.90828164      11.49899109       6.79549375
N       13.82044838      12.84833799       6.44344165
O       12.89065625      14.57842882       5.29157901
O       14.77656090      11.14428259       7.61252258
H       10.94795806       6.02613707       5.38120393
H        9.35040897       4.47862169       4.32913603
H        8.12151803      11.17506625       1.90062478
H        6.54917376       9.58128458       0.87950610
H        5.84068190       4.93981971       1.22487266
H        9.35677405      12.40015832       2.70896015
H       10.95438808      13.94788204       3.76108866
H       13.75626578       8.84487480       7.20964581
H       12.18368592       7.25117812       6.18857012
H       14.46447292      13.48664057       6.86457753
