80
Dimer: struct; Energy: -4906.06228 eV
C       -1.29972200       1.48833600      -0.03228100
C       -0.45010500       2.63965400       0.01843500
C        0.99654200       2.45238200       0.05441800
C       -0.76903400       0.15867800      -0.04877100
C        0.67752200      -0.02870400      -0.01297900
C        1.52709100       1.12265000       0.03785500
C        2.93347700       0.94084900       0.07277000
C        3.48023700      -0.37253000       0.05696900
C        3.79427800       2.07240500       0.12351100
C        5.26507800       1.88272800       0.16006300
C        1.24802600      -1.29258500      -0.02698300
C        2.64560500      -1.46904700       0.00777700
C        1.86805800       3.52983300       0.10418700
C        3.26457400       3.34539700       0.13880400
C        4.95087500      -0.56291500       0.09346700
N        5.75909100       0.57580800       0.14293500
O        6.06925500       2.83065500       0.20492200
O        5.48910000      -1.68427500       0.08194900
C       -1.02041300       3.90352800       0.03216900
C       -2.41794600       4.08003500      -0.00262400
C       -2.70602800       1.67000700      -0.06716000
C       -3.25245200       2.98347100      -0.05156500
C       -3.56691500       0.53850500      -0.11766500
C       -3.03687800      -0.73433100      -0.13279200
C       -1.64041100      -0.91883000      -0.09829200
C       -4.72314700       3.17392200      -0.08803700
C       -5.03773600       0.72818300      -0.15412500
N       -5.53143900       2.03522700      -0.13722100
O       -5.26133100       4.29529300      -0.07673500
O       -5.84203300      -0.21964700      -0.19870900
H        0.62972700      -2.20233100      -0.06573200
H        3.07286500      -2.48716200      -0.00439800
H        1.49989900       4.56697900       0.11841200
H        3.93550500       4.22152900       0.17822500
H        6.75033500       0.44779700       0.16755800
H       -0.40199700       4.81321100       0.07071000
H       -2.84532000       5.09816700       0.00933800
H       -3.70773700      -1.61056600      -0.17200800
H       -1.27202900      -1.95588300      -0.11238600
H       -6.52266300       2.16338500      -0.16179200
C        2.22322992       8.90415363       9.34653212
C        2.41907889      10.06473746       8.53127594
C        2.36381617       9.92907584       7.07948564
C        1.97460139       7.61448558       8.77659154
C        1.91913672       7.47874180       7.32489783
C        2.11510982       8.63934090       6.50968505
C        2.06136032       8.50772097       5.09831004
C        1.81530156       7.23462107       4.51279119
C        2.25364105       9.64921981       4.27127890
C        2.19753825       9.51201043       2.79527344
C        1.68166052       6.25511399       6.71710992
C        1.62897352       6.12845418       5.31469930
C        2.54614324      11.01773187       6.24013909
C        2.49210129      10.88318396       4.83855134
C        1.75904058       7.09671522       3.03692827
N        1.95342137       8.24349490       2.26267849
O        2.35742229      10.47104551       2.01940787
O        1.54788196       6.01214167       2.46563210
C        2.65627933      11.28840799       9.13888085
C        2.70893894      11.41511912      10.54124849
C        2.27699103       9.03564266      10.75782155
C        2.52284576      10.30887138      11.34301738
C        2.08495529       7.89415697      11.58492894
C        1.84666936       6.66033345      11.01732092
C        1.79250411       6.52573979       9.61578573
C        2.57914523      10.44683615      12.81893800
C        2.14114990       8.03135216      13.06095101
N        2.38505225       9.30003684      13.59325097
O        2.79009075      11.53145587      13.39020389
O        1.98155755       7.07236528      13.83692624
H        1.52596867       5.33984856       7.30828007
H        1.43815998       5.14168100       4.85739593
H        2.73948344      12.02520651       6.63892431
H        2.64092303      11.76716159       4.19376817
H        1.91557176       8.15084846       1.26792132
H        2.81175108      12.20364819       8.54760187
H        2.89954984      12.40193806      10.99867638
H        1.69803056       5.77622484      11.66201925
H        1.59929839       5.51834492       9.21677448
H        2.42297552       9.39282099      14.58799021
