80
Dimer: struct; Energy: -4906.06228 eV
C       -1.29972200       1.48833600      -0.03228100
C       -0.45010500       2.63965400       0.01843500
C        0.99654200       2.45238200       0.05441800
C       -0.76903400       0.15867800      -0.04877100
C        0.67752200      -0.02870400      -0.01297900
C        1.52709100       1.12265000       0.03785500
C        2.93347700       0.94084900       0.07277000
C        3.48023700      -0.37253000       0.05696900
C        3.79427800       2.07240500       0.12351100
C        5.26507800       1.88272800       0.16006300
C        1.24802600      -1.29258500      -0.02698300
C        2.64560500      -1.46904700       0.00777700
C        1.86805800       3.52983300       0.10418700
C        3.26457400       3.34539700       0.13880400
C        4.95087500      -0.56291500       0.09346700
N        5.75909100       0.57580800       0.14293500
O        6.06925500       2.83065500       0.20492200
O        5.48910000      -1.68427500       0.08194900
C       -1.02041300       3.90352800       0.03216900
C       -2.41794600       4.08003500      -0.00262400
C       -2.70602800       1.67000700      -0.06716000
C       -3.25245200       2.98347100      -0.05156500
C       -3.56691500       0.53850500      -0.11766500
C       -3.03687800      -0.73433100      -0.13279200
C       -1.64041100      -0.91883000      -0.09829200
C       -4.72314700       3.17392200      -0.08803700
C       -5.03773600       0.72818300      -0.15412500
N       -5.53143900       2.03522700      -0.13722100
O       -5.26133100       4.29529300      -0.07673500
O       -5.84203300      -0.21964700      -0.19870900
H        0.62972700      -2.20233100      -0.06573200
H        3.07286500      -2.48716200      -0.00439800
H        1.49989900       4.56697900       0.11841200
H        3.93550500       4.22152900       0.17822500
H        6.75033500       0.44779700       0.16755800
H       -0.40199700       4.81321100       0.07071000
H       -2.84532000       5.09816700       0.00933800
H       -3.70773700      -1.61056600      -0.17200800
H       -1.27202900      -1.95588300      -0.11238600
H       -6.52266300       2.16338500      -0.16179200
C        3.92089960       8.91252178       2.44884547
C        4.23690179       7.53052510       2.24839080
C        4.29556257       6.64164042       3.40407071
C        3.66083233       9.44614321       3.75172891
C        3.71928028       8.55736573       4.90740004
C        4.03540316       7.17539847       4.70689963
C        4.09241810       6.31106288       5.83022751
C        3.83696242       6.82226730       7.13313694
C        4.40495830       4.93471095       5.65149311
C        4.46471189       4.03048524       6.82595955
C        3.47649650       9.01813293       6.19262988
C        3.53405792       8.15634007       7.30599141
C        4.59676744       5.29464734       3.27064277
C        4.65254720       4.43905069       4.38881759
C        3.89651454       5.91863253       8.30797839
N        4.20702871       4.57435043       8.08698776
O        4.73233488       2.81912209       6.73509798
O        3.68334615       6.30491934       9.47099550
C        4.47942815       7.06957793       0.96327368
C        4.42184538       7.93130175      -0.15009061
C        3.86389724       9.77689608       1.32566905
C        4.11918246       9.26536048       0.02291395
C        3.55159524      11.15331211       1.50433161
C        3.30421410      11.64865815       2.76715163
C        3.35986465      10.79311939       3.88532276
C        4.05966660      10.16899475      -1.15201096
C        3.49193101      12.05756770       0.32986003
N        3.74943283      11.51335991      -0.93106150
O        4.27262750       9.78263450      -2.31503120
O        3.22459157      13.26899619       0.42060009
H        3.23033100      10.07285147       6.38859995
H        3.33624804       8.55021347       8.31841054
H        4.80288491       4.84626023       2.28683394
H        4.89485604       3.37026387       4.25357387
H        4.24725291       3.96506897       8.87864166
H        4.72538237       6.01478430       0.76740678
H        4.61944536       7.53746098      -1.16262608
H        3.06208832      12.71749967       2.90254133
H        3.15390343      11.24130733       4.86923862
H        3.70928981      12.12253528      -1.72279828
