80
Dimer: struct; Energy: -4906.06228 eV
C       -1.29972200       1.48833600      -0.03228100
C       -0.45010500       2.63965400       0.01843500
C        0.99654200       2.45238200       0.05441800
C       -0.76903400       0.15867800      -0.04877100
C        0.67752200      -0.02870400      -0.01297900
C        1.52709100       1.12265000       0.03785500
C        2.93347700       0.94084900       0.07277000
C        3.48023700      -0.37253000       0.05696900
C        3.79427800       2.07240500       0.12351100
C        5.26507800       1.88272800       0.16006300
C        1.24802600      -1.29258500      -0.02698300
C        2.64560500      -1.46904700       0.00777700
C        1.86805800       3.52983300       0.10418700
C        3.26457400       3.34539700       0.13880400
C        4.95087500      -0.56291500       0.09346700
N        5.75909100       0.57580800       0.14293500
O        6.06925500       2.83065500       0.20492200
O        5.48910000      -1.68427500       0.08194900
C       -1.02041300       3.90352800       0.03216900
C       -2.41794600       4.08003500      -0.00262400
C       -2.70602800       1.67000700      -0.06716000
C       -3.25245200       2.98347100      -0.05156500
C       -3.56691500       0.53850500      -0.11766500
C       -3.03687800      -0.73433100      -0.13279200
C       -1.64041100      -0.91883000      -0.09829200
C       -4.72314700       3.17392200      -0.08803700
C       -5.03773600       0.72818300      -0.15412500
N       -5.53143900       2.03522700      -0.13722100
O       -5.26133100       4.29529300      -0.07673500
O       -5.84203300      -0.21964700      -0.19870900
H        0.62972700      -2.20233100      -0.06573200
H        3.07286500      -2.48716200      -0.00439800
H        1.49989900       4.56697900       0.11841200
H        3.93550500       4.22152900       0.17822500
H        6.75033500       0.44779700       0.16755800
H       -0.40199700       4.81321100       0.07071000
H       -2.84532000       5.09816700       0.00933800
H       -3.70773700      -1.61056600      -0.17200800
H       -1.27202900      -1.95588300      -0.11238600
H       -6.52266300       2.16338500      -0.16179200
C        3.38150501       2.44406135       7.11183112
C        4.28985952       3.47697011       6.71440708
C        3.87127897       4.43718059       5.69856295
C        2.07403645       2.32752171       6.54013491
C        1.65529978       3.28773200       5.52447102
C        2.56374071       4.32055273       5.12699896
C        2.15701884       5.25417759       4.13952026
C        0.86164629       5.15521239       3.55954059
C        3.04544583       6.28760006       3.73122198
C        2.62051850       7.26413803       2.69856695
C        0.40115391       3.22408913       4.93613961
C        0.00080948       4.15344913       3.95553342
C        4.70836397       5.45811478       5.27441694
C        4.30093254       6.38371133       4.29322248
C        0.43608621       6.13139044       2.52690818
N        1.34006775       7.13002838       2.15557286
O        3.35058941       8.18897117       2.29987071
O       -0.68210929       6.09773569       1.98305780
C        5.54386028       3.54090615       7.30280454
C        5.94422453       2.61161570       8.28341225
C        3.78810831       1.51042421       8.09920791
C        5.08341817       1.60978358       8.67913045
C        2.89983604       0.47682602       8.50740040
C        1.64449365       0.38092295       7.94508588
C        1.23696933       1.30652598       6.96399814
C        5.50905833       0.63357470       9.71179315
C        3.32480324      -0.49977906       9.54000239
N        4.60522448      -0.36526893      10.08297651
O        6.62717383       0.66738611      10.25577588
O        2.59494708      -1.42481825       9.93859441
H       -0.32573237       2.44576043       5.21412106
H       -1.00393960       4.07917839       3.50362564
H        5.72041076       5.58156055       5.68907060
H        4.98806211       7.18701432       3.97405646
H        1.05352253       7.78810268       1.45959310
H        6.27058876       4.31941378       7.02488638
H        6.94892832       2.68593091       8.73555375
H        0.95733601      -0.42248367       8.26403675
H        0.22501638       1.18320396       6.54911771
H        4.89191914      -1.02330158      10.77893085
