80
Dimer: struct; Energy: -4906.06228 eV
C       -1.29972200       1.48833600      -0.03228100
C       -0.45010500       2.63965400       0.01843500
C        0.99654200       2.45238200       0.05441800
C       -0.76903400       0.15867800      -0.04877100
C        0.67752200      -0.02870400      -0.01297900
C        1.52709100       1.12265000       0.03785500
C        2.93347700       0.94084900       0.07277000
C        3.48023700      -0.37253000       0.05696900
C        3.79427800       2.07240500       0.12351100
C        5.26507800       1.88272800       0.16006300
C        1.24802600      -1.29258500      -0.02698300
C        2.64560500      -1.46904700       0.00777700
C        1.86805800       3.52983300       0.10418700
C        3.26457400       3.34539700       0.13880400
C        4.95087500      -0.56291500       0.09346700
N        5.75909100       0.57580800       0.14293500
O        6.06925500       2.83065500       0.20492200
O        5.48910000      -1.68427500       0.08194900
C       -1.02041300       3.90352800       0.03216900
C       -2.41794600       4.08003500      -0.00262400
C       -2.70602800       1.67000700      -0.06716000
C       -3.25245200       2.98347100      -0.05156500
C       -3.56691500       0.53850500      -0.11766500
C       -3.03687800      -0.73433100      -0.13279200
C       -1.64041100      -0.91883000      -0.09829200
C       -4.72314700       3.17392200      -0.08803700
C       -5.03773600       0.72818300      -0.15412500
N       -5.53143900       2.03522700      -0.13722100
O       -5.26133100       4.29529300      -0.07673500
O       -5.84203300      -0.21964700      -0.19870900
H        0.62972700      -2.20233100      -0.06573200
H        3.07286500      -2.48716200      -0.00439800
H        1.49989900       4.56697900       0.11841200
H        3.93550500       4.22152900       0.17822500
H        6.75033500       0.44779700       0.16755800
H       -0.40199700       4.81321100       0.07071000
H       -2.84532000       5.09816700       0.00933800
H       -3.70773700      -1.61056600      -0.17200800
H       -1.27202900      -1.95588300      -0.11238600
H       -6.52266300       2.16338500      -0.16179200
C        2.44927365      -0.25388298       4.16523148
C        1.27030177       0.09998511       3.43396069
C        0.84162427       1.49457648       3.41151886
C        3.21904091       0.72277480       4.87480178
C        2.79058806       2.11734942       4.85228180
C        1.61153955       2.47114364       4.12108971
C        1.19464418       3.82683737       4.09906674
C        1.94623469       4.81223752       4.79782192
C        0.02571870       4.19821670       3.37819045
C       -0.41061811       5.61583262       3.35492408
C        3.49651161       3.10625412       5.52071694
C        3.07915930       4.45191400       5.49641247
C       -0.29172114       1.89572824       2.72048831
C       -0.70283833       3.24334464       2.70087750
C        1.51050089       6.22997074       4.77494674
N        0.35687777       6.55052087       4.05470265
O       -1.42238966       6.00305169       2.74364812
O        2.12426554       7.13673021       5.36515627
C        0.56446686      -0.88869883       2.76529151
C        0.98178864      -2.23432819       2.78953795
C        2.86621185      -1.60946062       4.18735082
C        2.11455381      -2.59455379       3.48834314
C        4.03499329      -1.98097191       4.90839399
C        4.76321622      -1.02587373       5.58571102
C        4.35223095       0.32173702       5.56604900
C        2.55024625      -4.01236722       3.51120669
C        4.47128373      -3.39862042       4.93173582
N        3.70371242      -4.33303733       4.23167030
O        1.93658399      -4.91906270       2.92081310
O        5.48287029      -3.78602392       5.54318840
H        4.40743100       2.87526500       6.09369409
H        3.66045720       5.21891919       6.03775643
H       -0.91011976       1.17586340       2.16300021
H       -1.60964722       3.53495733       2.14233530
H        0.06294428       7.50598830       4.03911826
H       -0.34632994      -0.65754985       2.19217174
H        0.40064521      -3.00141464       2.24802609
H        5.66995310      -1.31741125       6.14446998
H        4.97040256       1.04175470       6.12356247
H        3.99750208      -5.28854738       4.24720765
