80
Dimer: struct; Energy: -4906.06228 eV
C       -1.29972200       1.48833600      -0.03228100
C       -0.45010500       2.63965400       0.01843500
C        0.99654200       2.45238200       0.05441800
C       -0.76903400       0.15867800      -0.04877100
C        0.67752200      -0.02870400      -0.01297900
C        1.52709100       1.12265000       0.03785500
C        2.93347700       0.94084900       0.07277000
C        3.48023700      -0.37253000       0.05696900
C        3.79427800       2.07240500       0.12351100
C        5.26507800       1.88272800       0.16006300
C        1.24802600      -1.29258500      -0.02698300
C        2.64560500      -1.46904700       0.00777700
C        1.86805800       3.52983300       0.10418700
C        3.26457400       3.34539700       0.13880400
C        4.95087500      -0.56291500       0.09346700
N        5.75909100       0.57580800       0.14293500
O        6.06925500       2.83065500       0.20492200
O        5.48910000      -1.68427500       0.08194900
C       -1.02041300       3.90352800       0.03216900
C       -2.41794600       4.08003500      -0.00262400
C       -2.70602800       1.67000700      -0.06716000
C       -3.25245200       2.98347100      -0.05156500
C       -3.56691500       0.53850500      -0.11766500
C       -3.03687800      -0.73433100      -0.13279200
C       -1.64041100      -0.91883000      -0.09829200
C       -4.72314700       3.17392200      -0.08803700
C       -5.03773600       0.72818300      -0.15412500
N       -5.53143900       2.03522700      -0.13722100
O       -5.26133100       4.29529300      -0.07673500
O       -5.84203300      -0.21964700      -0.19870900
H        0.62972700      -2.20233100      -0.06573200
H        3.07286500      -2.48716200      -0.00439800
H        1.49989900       4.56697900       0.11841200
H        3.93550500       4.22152900       0.17822500
H        6.75033500       0.44779700       0.16755800
H       -0.40199700       4.81321100       0.07071000
H       -2.84532000       5.09816700       0.00933800
H       -3.70773700      -1.61056600      -0.17200800
H       -1.27202900      -1.95588300      -0.11238600
H       -6.52266300       2.16338500      -0.16179200
C        8.31875200       4.20709641       1.35465356
C        8.82558489       5.40260425       0.75146559
C        8.14126982       6.66722226       0.99967377
C        7.15929982       4.21834985       2.19455598
C        6.47504668       5.48286746       2.44297139
C        6.98185576       6.67832945       1.83966154
C        6.31681393       7.90785439       2.08086692
C        5.16306774       7.93976583       2.91273948
C        6.80506037       9.10654264       1.49032997
C        6.10986795      10.39253958       1.74229311
C        5.34796040       5.55441129       3.24772235
C        4.69012953       6.77774900       3.48495124
C        8.58646716       7.85635224       0.44228077
C        7.92325267       9.07583965       0.68408427
C        4.46744561       9.22536350       3.16513431
N        4.98081058      10.37820931       2.56534000
O        6.48731610      11.47317544       1.25542804
O        3.45527474       9.31834821       3.88216363
C        9.95274961       5.33127221      -0.05303969
C       10.61061571       4.10799736      -0.29026233
C        8.98364868       2.97759393       1.11350314
C       10.13745319       2.94604908       0.28178795
C        8.49533778       1.77881673       1.70380783
C        7.37704362       1.80986347       2.50986850
C        6.71386783       3.02929719       2.75179721
C       10.83312958       1.66041942       0.02932745
C        9.19048580       0.49278943       1.45176715
N       10.31964990       0.50747859       0.62886675
O       11.84541751       1.56750314      -0.68752846
O        8.81299474      -0.58795604       1.93833969
H        4.92741460       4.65860626       3.72949771
H        3.79447409       6.80563621       4.13014976
H        9.47341547       7.88971362      -0.20858399
H        8.29959750      10.00803394       0.22726035
H        4.51216191      11.24484231       2.73526188
H       10.37332593       6.22718814      -0.53459668
H       11.50644727       4.08003715      -0.93531150
H        7.00047941       0.87767323       2.96659404
H        5.82683152       2.99615943       3.40252859
H       10.78836935      -0.35908913       0.45882062
