80
Dimer: struct; Energy: -4906.06228 eV
C       -1.29972200       1.48833600      -0.03228100
C       -0.45010500       2.63965400       0.01843500
C        0.99654200       2.45238200       0.05441800
C       -0.76903400       0.15867800      -0.04877100
C        0.67752200      -0.02870400      -0.01297900
C        1.52709100       1.12265000       0.03785500
C        2.93347700       0.94084900       0.07277000
C        3.48023700      -0.37253000       0.05696900
C        3.79427800       2.07240500       0.12351100
C        5.26507800       1.88272800       0.16006300
C        1.24802600      -1.29258500      -0.02698300
C        2.64560500      -1.46904700       0.00777700
C        1.86805800       3.52983300       0.10418700
C        3.26457400       3.34539700       0.13880400
C        4.95087500      -0.56291500       0.09346700
N        5.75909100       0.57580800       0.14293500
O        6.06925500       2.83065500       0.20492200
O        5.48910000      -1.68427500       0.08194900
C       -1.02041300       3.90352800       0.03216900
C       -2.41794600       4.08003500      -0.00262400
C       -2.70602800       1.67000700      -0.06716000
C       -3.25245200       2.98347100      -0.05156500
C       -3.56691500       0.53850500      -0.11766500
C       -3.03687800      -0.73433100      -0.13279200
C       -1.64041100      -0.91883000      -0.09829200
C       -4.72314700       3.17392200      -0.08803700
C       -5.03773600       0.72818300      -0.15412500
N       -5.53143900       2.03522700      -0.13722100
O       -5.26133100       4.29529300      -0.07673500
O       -5.84203300      -0.21964700      -0.19870900
H        0.62972700      -2.20233100      -0.06573200
H        3.07286500      -2.48716200      -0.00439800
H        1.49989900       4.56697900       0.11841200
H        3.93550500       4.22152900       0.17822500
H        6.75033500       0.44779700       0.16755800
H       -0.40199700       4.81321100       0.07071000
H       -2.84532000       5.09816700       0.00933800
H       -3.70773700      -1.61056600      -0.17200800
H       -1.27202900      -1.95588300      -0.11238600
H       -6.52266300       2.16338500      -0.16179200
C        4.92989343       4.85386369       6.02020827
C        5.19091973       4.01770442       7.15275285
C        4.39659431       4.19572627       8.36374767
C        3.91109073       5.85954988       6.04319561
C        3.11662144       6.03753079       7.25400472
C        3.37777007       5.20142025       8.38656297
C        2.60565232       5.37424728       9.56391476
C        1.58852082       6.36812653       9.60643651
C        2.85009112       4.55323788      10.69976917
C        2.04288765       4.73366214      11.93120561
C        2.11675885       6.99510534       7.33395390
C        1.35187595       7.16369461       8.50532317
C        4.60474004       3.41535247       9.49096098
C        3.83581094       3.58990857      10.65875810
C        0.78096396       6.54905321      10.83748165
N        1.05450129       5.72132170      11.92944692
O        2.20827363       4.04811024      12.95587368
O       -0.12134801       7.39950494      10.93663826
C        6.19050227       3.05996170       7.07287190
C        6.95536581       2.89131717       5.90154506
C        5.70192271       4.68115963       4.84289711
C        6.71879932       3.68708489       4.80061903
C        5.45771351       5.50228028       3.70707288
C        4.47202745       6.46560135       3.74848591
C        3.70300936       6.64012909       4.91617656
C        7.52643860       3.50612436       3.56955540
C        6.26498906       5.32191477       2.47565258
N        7.25314327       4.33401814       2.47763834
O        8.42859293       2.65552450       3.47035803
O        6.09989951       6.00757021       1.45101354
H        1.88523136       7.65712570       6.48568685
H        0.56177214       7.93421396       8.54128691
H        5.37775253       2.63217631       9.51336676
H        4.02297462       2.95434807      11.54212797
H        0.51037987       5.84304694      12.75930993
H        6.42179844       2.39785535       7.92114319
H        7.74539374       2.12064576       5.86540876
H        4.28490677       7.10137381       2.86522111
H        2.93002623       7.42332132       4.89404358
H        7.79737190       4.21221493       1.64785981
