80
Dimer: struct; Energy: -4906.06228 eV
C       -1.29972200       1.48833600      -0.03228100
C       -0.45010500       2.63965400       0.01843500
C        0.99654200       2.45238200       0.05441800
C       -0.76903400       0.15867800      -0.04877100
C        0.67752200      -0.02870400      -0.01297900
C        1.52709100       1.12265000       0.03785500
C        2.93347700       0.94084900       0.07277000
C        3.48023700      -0.37253000       0.05696900
C        3.79427800       2.07240500       0.12351100
C        5.26507800       1.88272800       0.16006300
C        1.24802600      -1.29258500      -0.02698300
C        2.64560500      -1.46904700       0.00777700
C        1.86805800       3.52983300       0.10418700
C        3.26457400       3.34539700       0.13880400
C        4.95087500      -0.56291500       0.09346700
N        5.75909100       0.57580800       0.14293500
O        6.06925500       2.83065500       0.20492200
O        5.48910000      -1.68427500       0.08194900
C       -1.02041300       3.90352800       0.03216900
C       -2.41794600       4.08003500      -0.00262400
C       -2.70602800       1.67000700      -0.06716000
C       -3.25245200       2.98347100      -0.05156500
C       -3.56691500       0.53850500      -0.11766500
C       -3.03687800      -0.73433100      -0.13279200
C       -1.64041100      -0.91883000      -0.09829200
C       -4.72314700       3.17392200      -0.08803700
C       -5.03773600       0.72818300      -0.15412500
N       -5.53143900       2.03522700      -0.13722100
O       -5.26133100       4.29529300      -0.07673500
O       -5.84203300      -0.21964700      -0.19870900
H        0.62972700      -2.20233100      -0.06573200
H        3.07286500      -2.48716200      -0.00439800
H        1.49989900       4.56697900       0.11841200
H        3.93550500       4.22152900       0.17822500
H        6.75033500       0.44779700       0.16755800
H       -0.40199700       4.81321100       0.07071000
H       -2.84532000       5.09816700       0.00933800
H       -3.70773700      -1.61056600      -0.17200800
H       -1.27202900      -1.95588300      -0.11238600
H       -6.52266300       2.16338500      -0.16179200
C        1.07764735      10.73168609       0.06410849
C        1.53510992      12.06843665      -0.16779714
C        1.95131321      12.88279125       0.96919649
C        1.01746543      10.17213586       1.38060907
C        1.43379347      10.98628728       2.51759885
C        1.89113794      12.32307513       2.28564648
C        2.29586885      13.11491515       3.39080462
C        2.24354214      12.57685578       4.70682688
C        2.75329322      14.44556183       3.18077043
C        3.17661218      15.27398587       4.33622736
C        1.39720156      10.49736596       3.81478160
C        1.80013961      11.28709340       4.91001931
C        2.40291847      14.18358757       0.80518623
C        2.80411270      14.96722302       1.90538193
C        2.66672171      13.40468025       5.86267305
N        3.10905354      14.70598020       5.61105578
O        3.58548907      16.44278709       4.21789746
O        2.64416748      12.99176451       7.03581369
C        1.57201534      12.55737851      -1.46486737
C        1.16913174      11.76769851      -2.56010892
C        0.67288528       9.93982335      -1.04089763
C        0.72553092      10.47807854      -2.35676991
C        0.21522463       8.60924555      -0.83093713
C        0.16439337       8.08796420       0.44458687
C        0.56566711       8.87148245       1.54478174
C        0.30232082       9.65027156      -3.51270000
C       -0.20818607       7.78084291      -1.98639978
N       -0.14029319       8.34904727      -3.26112594
O        0.32509018      10.06314070      -4.68584250
O       -0.61733844       6.61213217      -1.86819381
H        1.05229003       9.47557477       4.03480827
H        1.76065483      10.87221399       5.93255220
H        2.46395541      14.64987980      -0.18993250
H        3.15964799      16.00039762       1.74583694
H        3.39432521      15.26417162       6.38990120
H        1.91714601      13.57912503      -1.68478961
H        1.20877805      12.18243715      -3.58275471
H       -0.19132655       7.05484270       0.60427647
H        0.50460180       8.40544426       2.54000146
H       -0.42557812       7.79098676      -4.04005739
