80
Dimer: struct; Energy: -4906.06228 eV
C       -1.29972200       1.48833600      -0.03228100
C       -0.45010500       2.63965400       0.01843500
C        0.99654200       2.45238200       0.05441800
C       -0.76903400       0.15867800      -0.04877100
C        0.67752200      -0.02870400      -0.01297900
C        1.52709100       1.12265000       0.03785500
C        2.93347700       0.94084900       0.07277000
C        3.48023700      -0.37253000       0.05696900
C        3.79427800       2.07240500       0.12351100
C        5.26507800       1.88272800       0.16006300
C        1.24802600      -1.29258500      -0.02698300
C        2.64560500      -1.46904700       0.00777700
C        1.86805800       3.52983300       0.10418700
C        3.26457400       3.34539700       0.13880400
C        4.95087500      -0.56291500       0.09346700
N        5.75909100       0.57580800       0.14293500
O        6.06925500       2.83065500       0.20492200
O        5.48910000      -1.68427500       0.08194900
C       -1.02041300       3.90352800       0.03216900
C       -2.41794600       4.08003500      -0.00262400
C       -2.70602800       1.67000700      -0.06716000
C       -3.25245200       2.98347100      -0.05156500
C       -3.56691500       0.53850500      -0.11766500
C       -3.03687800      -0.73433100      -0.13279200
C       -1.64041100      -0.91883000      -0.09829200
C       -4.72314700       3.17392200      -0.08803700
C       -5.03773600       0.72818300      -0.15412500
N       -5.53143900       2.03522700      -0.13722100
O       -5.26133100       4.29529300      -0.07673500
O       -5.84203300      -0.21964700      -0.19870900
H        0.62972700      -2.20233100      -0.06573200
H        3.07286500      -2.48716200      -0.00439800
H        1.49989900       4.56697900       0.11841200
H        3.93550500       4.22152900       0.17822500
H        6.75033500       0.44779700       0.16755800
H       -0.40199700       4.81321100       0.07071000
H       -2.84532000       5.09816700       0.00933800
H       -3.70773700      -1.61056600      -0.17200800
H       -1.27202900      -1.95588300      -0.11238600
H       -6.52266300       2.16338500      -0.16179200
C        6.27229090       9.07071196       6.55527158
C        5.96605085      10.26606408       5.82911412
C        5.12668563      10.17733651       4.63884249
C        5.77761706       7.79105387       6.14580237
C        4.93813756       7.70223171       4.95571744
C        4.63202478       8.89760331       4.22952922
C        3.81599967       8.81160927       3.07242063
C        3.31460517       7.54913894       2.64941616
C        3.50070074       9.98814297       2.33735123
C        2.64738939       9.89865307       1.12722010
C        4.43072766       6.49030280       4.51206259
C        3.62040649       6.40900552       3.36213019
C        4.79736384      11.30107383       3.89609131
C        3.98651770      11.21181111       2.74716458
C        2.46125354       7.45894159       1.43945331
N        2.17653970       8.63905340       0.74762645
O        2.33667966      10.88979554       0.44284107
O        1.99308761       6.38581193       1.01935754
C        6.47312900      11.47802916       6.27276907
C        7.28340269      11.55937787       7.42268328
C        7.08828140       9.15657874       7.71229528
C        7.58932569      10.41917926       8.13514825
C        7.40382672       7.98006685       8.44729520
C        6.91796873       6.75655851       8.03711367
C        6.10704923       6.66724266       6.88829581
C        8.44273995      10.50943524       9.34514144
C        8.25722422       8.06954624       9.65738926
N        8.72772946       9.32931492      10.03686272
O        8.91071019      11.58260223       9.76533085
O        8.56823699       7.07846160      10.34170307
H        4.64282407       5.54931725       5.04215147
H        3.22979642       5.43058465       3.03141298
H        5.15759580      12.30226381       4.17763487
H        3.73990911      12.12306295       2.17435222
H        1.60141946       8.57856611      -0.06793212
H        6.26078941      12.41898309       5.74270821
H        7.67391068      12.53783088       7.75361776
H        7.16468638       5.84518720       8.60974812
H        5.74680422       5.66614617       6.60649412
H        9.30289873       9.38994370      10.85237342
