80
Dimer: struct; Energy: -4906.06228 eV
C       -1.29972200       1.48833600      -0.03228100
C       -0.45010500       2.63965400       0.01843500
C        0.99654200       2.45238200       0.05441800
C       -0.76903400       0.15867800      -0.04877100
C        0.67752200      -0.02870400      -0.01297900
C        1.52709100       1.12265000       0.03785500
C        2.93347700       0.94084900       0.07277000
C        3.48023700      -0.37253000       0.05696900
C        3.79427800       2.07240500       0.12351100
C        5.26507800       1.88272800       0.16006300
C        1.24802600      -1.29258500      -0.02698300
C        2.64560500      -1.46904700       0.00777700
C        1.86805800       3.52983300       0.10418700
C        3.26457400       3.34539700       0.13880400
C        4.95087500      -0.56291500       0.09346700
N        5.75909100       0.57580800       0.14293500
O        6.06925500       2.83065500       0.20492200
O        5.48910000      -1.68427500       0.08194900
C       -1.02041300       3.90352800       0.03216900
C       -2.41794600       4.08003500      -0.00262400
C       -2.70602800       1.67000700      -0.06716000
C       -3.25245200       2.98347100      -0.05156500
C       -3.56691500       0.53850500      -0.11766500
C       -3.03687800      -0.73433100      -0.13279200
C       -1.64041100      -0.91883000      -0.09829200
C       -4.72314700       3.17392200      -0.08803700
C       -5.03773600       0.72818300      -0.15412500
N       -5.53143900       2.03522700      -0.13722100
O       -5.26133100       4.29529300      -0.07673500
O       -5.84203300      -0.21964700      -0.19870900
H        0.62972700      -2.20233100      -0.06573200
H        3.07286500      -2.48716200      -0.00439800
H        1.49989900       4.56697900       0.11841200
H        3.93550500       4.22152900       0.17822500
H        6.75033500       0.44779700       0.16755800
H       -0.40199700       4.81321100       0.07071000
H       -2.84532000       5.09816700       0.00933800
H       -3.70773700      -1.61056600      -0.17200800
H       -1.27202900      -1.95588300      -0.11238600
H       -6.52266300       2.16338500      -0.16179200
C       10.42336296       4.36756772       2.71750114
C       10.73000421       5.72178433       3.06681880
C       10.23752191       6.80190807       2.21832189
C        9.64689032       4.04413894       1.55889157
C        9.15422558       5.12412747       0.71046740
C        9.46099661       6.47832381       1.05976871
C        8.98228186       7.52853586       0.23509964
C        8.20889284       7.22758705      -0.92052132
C        9.27661148       8.88064836       0.56545376
C        8.77620688       9.97921815      -0.29669803
C        8.39756747       4.87091126      -0.42373547
C        7.92380570       5.91694450      -1.24039845
C       10.50329662       8.13193333       2.50696417
C       10.02612637       9.17254250       1.68543326
C        7.70817143       8.32562023      -1.78305009
N        8.02059478       9.63867570      -1.42162615
O        8.99960275      11.18006745      -0.06146663
O        7.02789610       8.12725839      -2.80537348
C       11.48637337       5.97516067       4.20106896
C       11.96011391       4.92919128       5.01775844
C       10.90202483       3.31734668       3.54202284
C       11.67517786       3.61862231       4.69765144
C       10.60794362       1.96519158       3.21161885
C        9.85853779       1.67365788       2.09149452
C        9.38125573       2.71419225       1.27000790
C       12.17596822       2.52057971       5.56023885
C       11.10843220       0.86660402       4.07373140
N       11.86381874       1.20747444       5.19871627
O       12.85605496       2.71898408       6.58266753
O       10.88534720      -0.33429170       3.83847482
H        8.14032110       3.84436942      -0.72617404
H        7.32331133       5.68645793      -2.13791722
H       11.09623802       8.42177558       3.38777470
H       10.25278665      10.22308572       1.93899541
H        7.68325751      10.37895383      -2.00278846
H       11.74338136       7.00176507       4.50352097
H       12.56047185       5.15959654       5.91546004
H        9.63198102       0.62311248       1.83771534
H        8.78839880       2.42458459       0.38908173
H       12.20126012       0.46729604       5.77994124
