80
Dimer: struct; Energy: -4906.06228 eV
C       -1.29972200       1.48833600      -0.03228100
C       -0.45010500       2.63965400       0.01843500
C        0.99654200       2.45238200       0.05441800
C       -0.76903400       0.15867800      -0.04877100
C        0.67752200      -0.02870400      -0.01297900
C        1.52709100       1.12265000       0.03785500
C        2.93347700       0.94084900       0.07277000
C        3.48023700      -0.37253000       0.05696900
C        3.79427800       2.07240500       0.12351100
C        5.26507800       1.88272800       0.16006300
C        1.24802600      -1.29258500      -0.02698300
C        2.64560500      -1.46904700       0.00777700
C        1.86805800       3.52983300       0.10418700
C        3.26457400       3.34539700       0.13880400
C        4.95087500      -0.56291500       0.09346700
N        5.75909100       0.57580800       0.14293500
O        6.06925500       2.83065500       0.20492200
O        5.48910000      -1.68427500       0.08194900
C       -1.02041300       3.90352800       0.03216900
C       -2.41794600       4.08003500      -0.00262400
C       -2.70602800       1.67000700      -0.06716000
C       -3.25245200       2.98347100      -0.05156500
C       -3.56691500       0.53850500      -0.11766500
C       -3.03687800      -0.73433100      -0.13279200
C       -1.64041100      -0.91883000      -0.09829200
C       -4.72314700       3.17392200      -0.08803700
C       -5.03773600       0.72818300      -0.15412500
N       -5.53143900       2.03522700      -0.13722100
O       -5.26133100       4.29529300      -0.07673500
O       -5.84203300      -0.21964700      -0.19870900
H        0.62972700      -2.20233100      -0.06573200
H        3.07286500      -2.48716200      -0.00439800
H        1.49989900       4.56697900       0.11841200
H        3.93550500       4.22152900       0.17822500
H        6.75033500       0.44779700       0.16755800
H       -0.40199700       4.81321100       0.07071000
H       -2.84532000       5.09816700       0.00933800
H       -3.70773700      -1.61056600      -0.17200800
H       -1.27202900      -1.95588300      -0.11238600
H       -6.52266300       2.16338500      -0.16179200
C       11.07881701       8.89624159       1.23092633
C       11.79168978       7.97743122       0.39572921
C       11.42774355       6.56466181       0.42363717
C       10.01886360       8.46706786       2.09243707
C        9.65472576       7.05443024       2.12029231
C       10.36771220       6.13564277       1.28515906
C       10.01403629       4.76218664       1.31206332
C        8.96343228       4.31604660       2.16138708
C       10.71075947       3.83371521       0.48957344
C       10.34123427       2.39731643       0.51742521
C        8.63675226       6.58139385       2.93456046
C        8.28835359       5.21624825       2.95843521
C       12.08304036       5.62945031      -0.36305419
C       11.72899949       4.26590216      -0.33367048
C        8.59339019       2.87986358       2.18970436
N        9.30362479       2.00271541       1.36597615
O       10.91191793       1.53763004      -0.17722437
O        7.68520062       2.42857059       2.90997750
C       12.80944227       8.45032573      -0.41874484
C       13.15784303       9.81542933      -0.44267842
C       11.43240966      10.26962125       1.20413076
C       12.48287731      10.71546421       0.35457097
C       10.73589912      11.19812986       2.02675996
C        9.71782456      10.76557539       2.84998553
C        9.36366828       9.40210106       2.87933332
C       12.85299434      12.15169394       0.32623168
C       11.10549061      12.63453218       1.99897526
N       12.14298422      13.02886235       1.15015071
O       13.76103933      12.60298588      -0.39420745
O       10.53508270      13.49427904       2.69376534
H        8.06505074       7.25515377       3.59079051
H        7.47338899       4.86704038       3.61657202
H       12.90270735       5.91906506      -1.03809830
H       12.26776499       3.54263737      -0.97079643
H        9.05444793       1.03466997       1.38486226
H       13.38093808       7.77649366      -1.07509064
H       13.97269654      10.16478718      -1.10096957
H        9.17911029      11.48873856       3.48732330
H        8.54411718       9.11223730       3.55438730
H       12.39229823      13.99686884       1.13119837
