80
Dimer: struct; Energy: -4906.06228 eV
C       -1.29972200       1.48833600      -0.03228100
C       -0.45010500       2.63965400       0.01843500
C        0.99654200       2.45238200       0.05441800
C       -0.76903400       0.15867800      -0.04877100
C        0.67752200      -0.02870400      -0.01297900
C        1.52709100       1.12265000       0.03785500
C        2.93347700       0.94084900       0.07277000
C        3.48023700      -0.37253000       0.05696900
C        3.79427800       2.07240500       0.12351100
C        5.26507800       1.88272800       0.16006300
C        1.24802600      -1.29258500      -0.02698300
C        2.64560500      -1.46904700       0.00777700
C        1.86805800       3.52983300       0.10418700
C        3.26457400       3.34539700       0.13880400
C        4.95087500      -0.56291500       0.09346700
N        5.75909100       0.57580800       0.14293500
O        6.06925500       2.83065500       0.20492200
O        5.48910000      -1.68427500       0.08194900
C       -1.02041300       3.90352800       0.03216900
C       -2.41794600       4.08003500      -0.00262400
C       -2.70602800       1.67000700      -0.06716000
C       -3.25245200       2.98347100      -0.05156500
C       -3.56691500       0.53850500      -0.11766500
C       -3.03687800      -0.73433100      -0.13279200
C       -1.64041100      -0.91883000      -0.09829200
C       -4.72314700       3.17392200      -0.08803700
C       -5.03773600       0.72818300      -0.15412500
N       -5.53143900       2.03522700      -0.13722100
O       -5.26133100       4.29529300      -0.07673500
O       -5.84203300      -0.21964700      -0.19870900
H        0.62972700      -2.20233100      -0.06573200
H        3.07286500      -2.48716200      -0.00439800
H        1.49989900       4.56697900       0.11841200
H        3.93550500       4.22152900       0.17822500
H        6.75033500       0.44779700       0.16755800
H       -0.40199700       4.81321100       0.07071000
H       -2.84532000       5.09816700       0.00933800
H       -3.70773700      -1.61056600      -0.17200800
H       -1.27202900      -1.95588300      -0.11238600
H       -6.52266300       2.16338500      -0.16179200
C       11.77637284       1.50063660       5.78436612
C       10.52281214       0.96463940       5.34704828
C        9.54383132       1.85802145       4.73662368
C       12.09571192       2.88873636       5.63912953
C       11.11693744       3.78213135       5.02858612
C        9.86334269       3.24610068       4.59139175
C        8.91149902       4.11438850       3.99787500
C        9.21014428       5.49694897       3.84458411
C        7.66014804       3.60073075       3.55713876
C        6.66445479       4.50841298       2.93643434
C       11.37124136       5.13514055       4.86196759
C       10.42311318       5.99445238       4.27187413
C        8.31359333       1.39531307       4.29465853
C        7.37051729       2.26080301       3.70558582
C        8.21496688       6.40513830       3.22396444
N        6.99899657       5.85870872       2.80541792
O        5.55415993       4.12037314       2.53152818
O        8.41666517       7.62188360       3.06236085
C       10.26848307      -0.38831348       5.51333885
C       11.21656777      -1.24764607       6.10337838
C       12.72821105       0.63250538       6.37788923
C       12.42936194      -0.74999456       6.53083757
C       13.97949607       1.14611641       6.81886934
C       14.26872910       2.48610975       6.67040503
C       13.32577219       3.35160731       6.08125611
C       13.42453528      -1.65826372       7.15150072
C       14.97516499       0.23843923       7.43966481
N       14.64042554      -1.11184526       7.57033129
O       13.22289315      -2.87503633       7.31289322
O       16.08537953       0.62638586       7.84486130
H       12.32224864       5.58563181       5.18457527
H       10.65207705       7.06793107       4.15155562
H        8.03029866       0.33588642       4.38833097
H        6.39831557       1.86535108       3.36243675
H        6.32804919       6.47058890       2.38709982
H        9.31751180      -0.83872978       5.19049877
H       10.98776947      -2.32123467       6.22355845
H       15.24084493       2.88172169       7.01371171
H       13.60879812       4.41109113       5.98759067
H       15.31125844      -1.72383030       7.98867416
