80
Dimer: struct; Energy: -4906.06228 eV
C       -1.29972200       1.48833600      -0.03228100
C       -0.45010500       2.63965400       0.01843500
C        0.99654200       2.45238200       0.05441800
C       -0.76903400       0.15867800      -0.04877100
C        0.67752200      -0.02870400      -0.01297900
C        1.52709100       1.12265000       0.03785500
C        2.93347700       0.94084900       0.07277000
C        3.48023700      -0.37253000       0.05696900
C        3.79427800       2.07240500       0.12351100
C        5.26507800       1.88272800       0.16006300
C        1.24802600      -1.29258500      -0.02698300
C        2.64560500      -1.46904700       0.00777700
C        1.86805800       3.52983300       0.10418700
C        3.26457400       3.34539700       0.13880400
C        4.95087500      -0.56291500       0.09346700
N        5.75909100       0.57580800       0.14293500
O        6.06925500       2.83065500       0.20492200
O        5.48910000      -1.68427500       0.08194900
C       -1.02041300       3.90352800       0.03216900
C       -2.41794600       4.08003500      -0.00262400
C       -2.70602800       1.67000700      -0.06716000
C       -3.25245200       2.98347100      -0.05156500
C       -3.56691500       0.53850500      -0.11766500
C       -3.03687800      -0.73433100      -0.13279200
C       -1.64041100      -0.91883000      -0.09829200
C       -4.72314700       3.17392200      -0.08803700
C       -5.03773600       0.72818300      -0.15412500
N       -5.53143900       2.03522700      -0.13722100
O       -5.26133100       4.29529300      -0.07673500
O       -5.84203300      -0.21964700      -0.19870900
H        0.62972700      -2.20233100      -0.06573200
H        3.07286500      -2.48716200      -0.00439800
H        1.49989900       4.56697900       0.11841200
H        3.93550500       4.22152900       0.17822500
H        6.75033500       0.44779700       0.16755800
H       -0.40199700       4.81321100       0.07071000
H       -2.84532000       5.09816700       0.00933800
H       -3.70773700      -1.61056600      -0.17200800
H       -1.27202900      -1.95588300      -0.11238600
H       -6.52266300       2.16338500      -0.16179200
C        3.82883693       9.84841264       0.97275272
C        3.87670300       8.48978478       1.42196699
C        3.93151007       8.21807970       2.85456102
C        3.83315390      10.94746949       1.89032968
C        3.88777015      10.67589855       3.32287415
C        3.93575326       9.31725057       3.77202991
C        3.98896560       9.05286137       5.16467453
C        3.99397831      10.13144711       6.09246128
C        4.03720408       7.70954211       5.63065565
C        4.09288649       7.43261497       7.08694439
C        3.89430925      11.70004774       4.25782964
C        3.94720570      11.43332120       5.64044784
C        3.97949718       6.92286418       3.34754351
C        4.03232622       6.66404806       4.73162994
C        4.04961265       9.85524362       7.54881670
N        4.09588991       8.52145855       7.96261141
O        4.13661141       6.28146554       7.55622223
O        4.05669255      10.75394012       8.40879434
C        3.86989629       7.46558320       0.48720385
C        3.81696688       7.73225291      -0.89538412
C        3.77566295      10.11290030      -0.41977601
C        3.77044722       9.03413080      -1.34726683
C        3.72765884      11.45619334      -0.88585905
C        3.73270482      12.50143451       0.01343232
C        3.78541700      12.24269430       1.39749343
C        3.71483749       9.31028909      -2.80369730
C        3.67206817      11.73312542      -2.34216938
N        3.66884300      10.64406920      -3.21757704
O        3.70754197       8.41157088      -3.66363627
O        3.62861575      12.88421804      -2.81159538
H        3.85842680      12.75711439       3.95327179
H        3.95120484      12.26836481       6.36290453
H        3.97802293       6.05135574       2.67531879
H        4.06986099       5.62257428       5.09664118
H        4.13340780       8.33499346       8.94413113
H        3.90557281       6.40854152       0.79189548
H        3.81275326       6.89723003      -1.61795136
H        3.69537699      13.54298241      -0.35148146
H        3.78702380      13.11404416       2.06989933
H        3.63137572      10.83038800      -4.19912416
