80
Dimer: struct; Energy: -4906.06228 eV
C       -1.29972200       1.48833600      -0.03228100
C       -0.45010500       2.63965400       0.01843500
C        0.99654200       2.45238200       0.05441800
C       -0.76903400       0.15867800      -0.04877100
C        0.67752200      -0.02870400      -0.01297900
C        1.52709100       1.12265000       0.03785500
C        2.93347700       0.94084900       0.07277000
C        3.48023700      -0.37253000       0.05696900
C        3.79427800       2.07240500       0.12351100
C        5.26507800       1.88272800       0.16006300
C        1.24802600      -1.29258500      -0.02698300
C        2.64560500      -1.46904700       0.00777700
C        1.86805800       3.52983300       0.10418700
C        3.26457400       3.34539700       0.13880400
C        4.95087500      -0.56291500       0.09346700
N        5.75909100       0.57580800       0.14293500
O        6.06925500       2.83065500       0.20492200
O        5.48910000      -1.68427500       0.08194900
C       -1.02041300       3.90352800       0.03216900
C       -2.41794600       4.08003500      -0.00262400
C       -2.70602800       1.67000700      -0.06716000
C       -3.25245200       2.98347100      -0.05156500
C       -3.56691500       0.53850500      -0.11766500
C       -3.03687800      -0.73433100      -0.13279200
C       -1.64041100      -0.91883000      -0.09829200
C       -4.72314700       3.17392200      -0.08803700
C       -5.03773600       0.72818300      -0.15412500
N       -5.53143900       2.03522700      -0.13722100
O       -5.26133100       4.29529300      -0.07673500
O       -5.84203300      -0.21964700      -0.19870900
H        0.62972700      -2.20233100      -0.06573200
H        3.07286500      -2.48716200      -0.00439800
H        1.49989900       4.56697900       0.11841200
H        3.93550500       4.22152900       0.17822500
H        6.75033500       0.44779700       0.16755800
H       -0.40199700       4.81321100       0.07071000
H       -2.84532000       5.09816700       0.00933800
H       -3.70773700      -1.61056600      -0.17200800
H       -1.27202900      -1.95588300      -0.11238600
H       -6.52266300       2.16338500      -0.16179200
C        3.31574218       0.76551687       8.55647455
C        3.30217624       0.50753681       7.14820734
C        3.26158262       1.63376322       6.22132043
C        3.29069374       2.09782748       9.08012814
C        3.25028747       3.22407599       8.15338709
C        3.23660469       2.96603419       6.74512759
C        3.19721553       4.06072984       5.84386061
C        3.17200698       5.39217279       6.34464475
C        3.18301030       3.82480261       4.44096769
C        3.14179348       4.96930737       3.49811241
C        3.22486753       4.53568282       8.60295071
C        3.18579412       5.62046217       7.70445130
C        3.24664931       1.44460593       4.84767045
C        3.20746600       2.53446895       3.95540637
C        3.13082163       6.53708355       5.40239330
N        3.11806837       6.25995564       4.03294533
O        3.12761630       4.82849545       2.26229301
O        3.10739028       7.72271666       5.77788251
C        3.32786600      -0.80392466       6.69851169
C        3.36697386      -1.88870455       7.59694752
C        3.35509131      -0.32903011       9.45777141
C        3.38050874      -1.66030028       8.95668881
C        3.36906229      -0.09320639      10.86068478
C        3.34444590       1.19723795      11.34589296
C        3.30537749       2.28711592      10.45371031
C        3.42167014      -2.80529872       9.89893605
C        3.41018717      -1.23772832      11.80355263
N        3.43414036      -2.52824962      11.26841392
O        3.44531777      -3.99090694       9.52341424
O        3.42409244      -1.09707540      13.03938697
H        3.23430923       4.77583002       9.67704247
H        3.16618210       6.65491934       8.09016003
H        3.26486610       0.43671100       4.40582073
H        3.19633763       2.35483244       2.86594935
H        3.09029588       7.03142354       3.39763143
H        3.31863030      -1.04394119       5.62438242
H        3.38679920      -2.92324739       7.21131497
H        3.35536619       1.37699419      12.43536343
H        3.28703290       3.29509288      10.89533095
H        3.46186554      -3.29981206      11.90361148
