80
Dimer: struct; Energy: -4906.06228 eV
C       -1.29972200       1.48833600      -0.03228100
C       -0.45010500       2.63965400       0.01843500
C        0.99654200       2.45238200       0.05441800
C       -0.76903400       0.15867800      -0.04877100
C        0.67752200      -0.02870400      -0.01297900
C        1.52709100       1.12265000       0.03785500
C        2.93347700       0.94084900       0.07277000
C        3.48023700      -0.37253000       0.05696900
C        3.79427800       2.07240500       0.12351100
C        5.26507800       1.88272800       0.16006300
C        1.24802600      -1.29258500      -0.02698300
C        2.64560500      -1.46904700       0.00777700
C        1.86805800       3.52983300       0.10418700
C        3.26457400       3.34539700       0.13880400
C        4.95087500      -0.56291500       0.09346700
N        5.75909100       0.57580800       0.14293500
O        6.06925500       2.83065500       0.20492200
O        5.48910000      -1.68427500       0.08194900
C       -1.02041300       3.90352800       0.03216900
C       -2.41794600       4.08003500      -0.00262400
C       -2.70602800       1.67000700      -0.06716000
C       -3.25245200       2.98347100      -0.05156500
C       -3.56691500       0.53850500      -0.11766500
C       -3.03687800      -0.73433100      -0.13279200
C       -1.64041100      -0.91883000      -0.09829200
C       -4.72314700       3.17392200      -0.08803700
C       -5.03773600       0.72818300      -0.15412500
N       -5.53143900       2.03522700      -0.13722100
O       -5.26133100       4.29529300      -0.07673500
O       -5.84203300      -0.21964700      -0.19870900
H        0.62972700      -2.20233100      -0.06573200
H        3.07286500      -2.48716200      -0.00439800
H        1.49989900       4.56697900       0.11841200
H        3.93550500       4.22152900       0.17822500
H        6.75033500       0.44779700       0.16755800
H       -0.40199700       4.81321100       0.07071000
H       -2.84532000       5.09816700       0.00933800
H       -3.70773700      -1.61056600      -0.17200800
H       -1.27202900      -1.95588300      -0.11238600
H       -6.52266300       2.16338500      -0.16179200
C        4.21566296       8.99324861       4.35790763
C        3.23478478       9.96335294       4.74096101
C        1.82306981       9.67203428       4.51436141
C        3.84952152       7.74544622       3.75889036
C        2.43790465       7.45395457       3.53242233
C        1.45707314       8.42414723       3.91538886
C        0.08461371       8.14113887       3.69526701
C       -0.29942498       6.90664954       3.10137228
C       -0.90496952       9.09249775       4.06891564
C       -2.34034252       8.79694697       3.83887186
C        2.02436840       6.26223777       2.95634511
C        0.65999705       5.98478696       2.73935196
C        0.82937397      10.57353666       4.86476090
C       -0.53298183      10.28899290       4.64454865
C       -1.73455312       6.61045748       2.87108513
N       -2.67286364       7.57274274       3.25309391
O       -3.25169015       9.58693569       4.14324317
O       -2.13323573       5.55042895       2.35663518
C        3.64811962      11.15492673       5.31726262
C        5.01243893      11.43239895       5.53430120
C        5.58805978       9.27614869       4.57793488
C        5.97174886      10.51059174       5.17202504
C        6.57772860       8.32494941       4.20410402
C        6.20539639       7.12863415       3.62836270
C        4.84309347       6.84398769       3.40823240
C        7.40692632      10.80685968       5.40232168
C        8.01312496       8.62054326       4.43406715
N        8.34531703       9.84473075       5.02007553
O        7.80556070      11.86679982       5.91696739
O        8.92458784       7.83077291       4.12949971
H        2.74683722       5.49114577       2.64830476
H        0.35890525       5.02752879       2.27863729
H        1.06957985      11.54301436       5.32717775
H       -1.30358698      11.02523381       4.93338547
H       -3.64021038       7.37339216       3.09798945
H        2.92553635      11.92586031       5.62545372
H        5.31363566      12.38959036       5.99522368
H        6.97594847       6.39238363       3.33929155
H        4.60265883       5.87462885       2.94572025
H        9.31262765      10.04423360       5.17519491
