80
Dimer: struct; Energy: -4906.06228 eV
C       -1.29972200       1.48833600      -0.03228100
C       -0.45010500       2.63965400       0.01843500
C        0.99654200       2.45238200       0.05441800
C       -0.76903400       0.15867800      -0.04877100
C        0.67752200      -0.02870400      -0.01297900
C        1.52709100       1.12265000       0.03785500
C        2.93347700       0.94084900       0.07277000
C        3.48023700      -0.37253000       0.05696900
C        3.79427800       2.07240500       0.12351100
C        5.26507800       1.88272800       0.16006300
C        1.24802600      -1.29258500      -0.02698300
C        2.64560500      -1.46904700       0.00777700
C        1.86805800       3.52983300       0.10418700
C        3.26457400       3.34539700       0.13880400
C        4.95087500      -0.56291500       0.09346700
N        5.75909100       0.57580800       0.14293500
O        6.06925500       2.83065500       0.20492200
O        5.48910000      -1.68427500       0.08194900
C       -1.02041300       3.90352800       0.03216900
C       -2.41794600       4.08003500      -0.00262400
C       -2.70602800       1.67000700      -0.06716000
C       -3.25245200       2.98347100      -0.05156500
C       -3.56691500       0.53850500      -0.11766500
C       -3.03687800      -0.73433100      -0.13279200
C       -1.64041100      -0.91883000      -0.09829200
C       -4.72314700       3.17392200      -0.08803700
C       -5.03773600       0.72818300      -0.15412500
N       -5.53143900       2.03522700      -0.13722100
O       -5.26133100       4.29529300      -0.07673500
O       -5.84203300      -0.21964700      -0.19870900
H        0.62972700      -2.20233100      -0.06573200
H        3.07286500      -2.48716200      -0.00439800
H        1.49989900       4.56697900       0.11841200
H        3.93550500       4.22152900       0.17822500
H        6.75033500       0.44779700       0.16755800
H       -0.40199700       4.81321100       0.07071000
H       -2.84532000       5.09816700       0.00933800
H       -3.70773700      -1.61056600      -0.17200800
H       -1.27202900      -1.95588300      -0.11238600
H       -6.52266300       2.16338500      -0.16179200
C        9.98997783       9.31206494       2.01688937
C        9.80438008      10.04786184       0.80275977
C        9.27347135       9.35976317      -0.36933633
C        9.66894235       7.92006135       2.11256736
C        9.13788349       7.23193727       0.94065478
C        8.95241556       7.96775755      -0.27348597
C        8.43624128       7.29905940      -1.41304692
C        8.11101423       5.91603529      -1.33799874
C        8.24486914       8.01294569      -2.62865996
C        7.70512376       7.31402168      -3.82061055
C        8.80917832       5.88513756       0.97455987
C        8.29662456       5.22443095      -0.15960483
C        9.07289006      10.02090886      -1.57165545
C        8.55998269       9.35336051      -2.70160108
C        7.57122506       5.21653684      -2.52950378
N        7.39921168       5.95575443      -3.70267000
O        7.51542978       7.88225843      -4.91074896
O        7.26824921       4.01010945      -2.52712586
C       10.13276139      11.39464620       0.76877565
C       10.64527081      12.05538485       1.90289306
C       10.50614472       9.98060871       3.15642368
C       10.83106095      11.36363752       3.08111874
C       10.69777129       9.26674930       4.37201323
C       10.38269652       7.92632197       4.44455296
C        9.86969497       7.25875966       3.31471218
C       11.37090091      12.06321027       4.27263725
C       11.23760952       9.96566114       5.56395215
N       11.54320713      11.32398170       5.44576683
O       11.67366295      13.26968128       4.27028836
O       11.42761016       9.39749365       6.65406617
H        8.93690911       5.28473506       1.88814325
H        8.04328236       4.15110669      -0.10437571
H        9.30717014      11.09024587      -1.68587650
H        8.41024682       9.90450904      -3.64665355
H        7.03542659       5.48455571      -4.50590718
H       10.00478951      11.99499650      -0.14481597
H       10.89846130      13.12881215       1.84782212
H       10.53258593       7.37500881       5.38952091
H        9.63545826       6.18939944       3.42866282
H       11.90704409      11.79529542       6.24891020
