80
Dimer: struct; Energy: -4906.06228 eV
C       -1.29972200       1.48833600      -0.03228100
C       -0.45010500       2.63965400       0.01843500
C        0.99654200       2.45238200       0.05441800
C       -0.76903400       0.15867800      -0.04877100
C        0.67752200      -0.02870400      -0.01297900
C        1.52709100       1.12265000       0.03785500
C        2.93347700       0.94084900       0.07277000
C        3.48023700      -0.37253000       0.05696900
C        3.79427800       2.07240500       0.12351100
C        5.26507800       1.88272800       0.16006300
C        1.24802600      -1.29258500      -0.02698300
C        2.64560500      -1.46904700       0.00777700
C        1.86805800       3.52983300       0.10418700
C        3.26457400       3.34539700       0.13880400
C        4.95087500      -0.56291500       0.09346700
N        5.75909100       0.57580800       0.14293500
O        6.06925500       2.83065500       0.20492200
O        5.48910000      -1.68427500       0.08194900
C       -1.02041300       3.90352800       0.03216900
C       -2.41794600       4.08003500      -0.00262400
C       -2.70602800       1.67000700      -0.06716000
C       -3.25245200       2.98347100      -0.05156500
C       -3.56691500       0.53850500      -0.11766500
C       -3.03687800      -0.73433100      -0.13279200
C       -1.64041100      -0.91883000      -0.09829200
C       -4.72314700       3.17392200      -0.08803700
C       -5.03773600       0.72818300      -0.15412500
N       -5.53143900       2.03522700      -0.13722100
O       -5.26133100       4.29529300      -0.07673500
O       -5.84203300      -0.21964700      -0.19870900
H        0.62972700      -2.20233100      -0.06573200
H        3.07286500      -2.48716200      -0.00439800
H        1.49989900       4.56697900       0.11841200
H        3.93550500       4.22152900       0.17822500
H        6.75033500       0.44779700       0.16755800
H       -0.40199700       4.81321100       0.07071000
H       -2.84532000       5.09816700       0.00933800
H       -3.70773700      -1.61056600      -0.17200800
H       -1.27202900      -1.95588300      -0.11238600
H       -6.52266300       2.16338500      -0.16179200
C        6.66768239      10.69218035       5.13794032
C        7.28969082       9.42712713       4.88754033
C        6.90085686       8.66765847       3.70383064
C        5.67498442      11.23242635       4.25897668
C        5.28622383      10.47317533       3.07520287
C        5.90818173       9.20807009       2.82491362
C        5.53039514       8.46960510       1.67420124
C        4.54585495       8.98956096       0.78848847
C        6.13692576       7.21048647       1.40828232
C        5.74212075       6.43789301       0.20503903
C        4.33076430      10.94654193       2.18858724
C        3.95820005      10.20999078       1.04654414
C        7.46896648       7.43714756       3.41055241
C        7.09116716       6.70638568       2.26655650
C        4.15062518       8.21754195      -0.41489624
N        4.77151360       6.98578313      -0.63764731
O        6.23512252       5.33249630      -0.08188596
O        3.29708109       8.61800151      -1.22629115
C        8.24530407       8.95378018       5.77386041
C        8.61791522       9.69029136       6.91586566
C        7.04534087      11.43066305       6.28856400
C        8.03003057      10.91055354       7.17393531
C        6.43869514      12.68968316       6.55469041
C        5.48439061      13.19340509       5.69629271
C        5.10663816      12.46276972       4.55225370
C        8.42529683      11.68255168       8.37740073
C        6.83343939      13.46224355       7.75799790
N        7.80423990      12.91419917       8.60036726
O        9.27899411      11.28216620       9.18865599
O        6.34033024      14.56751551       8.04519185
H        3.82974739      11.91392514       2.34538236
H        3.19439160      10.61098265       0.35729843
H        8.23491077       6.98782534       4.06082474
H        7.55997450       5.72877839       2.05724003
H        4.50531986       6.46521390      -1.44863828
H        8.74640513       7.98646909       5.61684474
H        9.38190399       9.28946056       7.60509728
H        5.01535599      14.17093507       5.90562291
H        4.34062969      12.91183585       3.90190495
H        8.07049529      13.43463732       9.41141931
