80
Dimer: struct; Energy: -4906.06228 eV
C       -1.29972200       1.48833600      -0.03228100
C       -0.45010500       2.63965400       0.01843500
C        0.99654200       2.45238200       0.05441800
C       -0.76903400       0.15867800      -0.04877100
C        0.67752200      -0.02870400      -0.01297900
C        1.52709100       1.12265000       0.03785500
C        2.93347700       0.94084900       0.07277000
C        3.48023700      -0.37253000       0.05696900
C        3.79427800       2.07240500       0.12351100
C        5.26507800       1.88272800       0.16006300
C        1.24802600      -1.29258500      -0.02698300
C        2.64560500      -1.46904700       0.00777700
C        1.86805800       3.52983300       0.10418700
C        3.26457400       3.34539700       0.13880400
C        4.95087500      -0.56291500       0.09346700
N        5.75909100       0.57580800       0.14293500
O        6.06925500       2.83065500       0.20492200
O        5.48910000      -1.68427500       0.08194900
C       -1.02041300       3.90352800       0.03216900
C       -2.41794600       4.08003500      -0.00262400
C       -2.70602800       1.67000700      -0.06716000
C       -3.25245200       2.98347100      -0.05156500
C       -3.56691500       0.53850500      -0.11766500
C       -3.03687800      -0.73433100      -0.13279200
C       -1.64041100      -0.91883000      -0.09829200
C       -4.72314700       3.17392200      -0.08803700
C       -5.03773600       0.72818300      -0.15412500
N       -5.53143900       2.03522700      -0.13722100
O       -5.26133100       4.29529300      -0.07673500
O       -5.84203300      -0.21964700      -0.19870900
H        0.62972700      -2.20233100      -0.06573200
H        3.07286500      -2.48716200      -0.00439800
H        1.49989900       4.56697900       0.11841200
H        3.93550500       4.22152900       0.17822500
H        6.75033500       0.44779700       0.16755800
H       -0.40199700       4.81321100       0.07071000
H       -2.84532000       5.09816700       0.00933800
H       -3.70773700      -1.61056600      -0.17200800
H       -1.27202900      -1.95588300      -0.11238600
H       -6.52266300       2.16338500      -0.16179200
C        7.50650170      11.18773509       5.07294953
C        7.16867663      11.70180181       3.78005977
C        6.81650936      10.76806339       2.71551109
C        7.50816462       9.78304552       5.34996310
C        7.15585543       8.84927210       4.28560283
C        6.81815161       9.36338926       2.99269630
C        6.47568938       8.45585903       1.95765971
C        6.47139858       7.05626759       2.21317091
C        6.13721147       8.94727177       0.66618063
C        5.77904322       7.99855400      -0.41650869
C        7.14029914       7.47863989       4.49582042
C        6.79951203       6.58033270       3.46505250
C        6.48089628      11.20815357       1.44405435
C        6.14128046      10.30369622       0.41834000
C        6.11331423       6.10704191       1.13099677
N        5.78762531       6.63269741      -0.12198499
O        5.47418740       8.36566103      -1.56523578
O        6.09128978       4.87377408       1.29172157
C        7.18392159      13.07233610       3.56977262
C        7.52465860      13.97065819       4.60049055
C        7.84899188      12.09511115       6.10797930
C        7.85298089      13.49460430       5.85221946
C        8.18771171      11.60377875       7.39942628
C        8.18368647      10.24729979       7.64686955
C        7.84398126       9.34282109       6.62126296
C        8.21109779      14.44391491       6.93439653
C        8.54597324      12.55250421       8.48210358
N        8.53707470      13.91831018       8.18733709
O        8.23290389      15.67718036       6.77369957
O        8.85111227      12.18553012       9.63079122
H        7.39346628       7.04398699       5.47480775
H        6.79528712       5.49355424       3.66037841
H        6.46791912      12.27926272       1.19112747
H        5.87807610      10.68180279      -0.58518807
H        5.54625010       5.99316020      -0.85156565
H        6.93053149      13.50688315       2.59078884
H        7.52871119      15.05752213       4.40531178
H        8.44707830       9.86905806       8.65033125
H        7.85700803       8.27166483       6.87392364
H        8.77847513      14.55795820       8.91680914
