80
Dimer: struct; Energy: -4906.06228 eV
C       -1.29972200       1.48833600      -0.03228100
C       -0.45010500       2.63965400       0.01843500
C        0.99654200       2.45238200       0.05441800
C       -0.76903400       0.15867800      -0.04877100
C        0.67752200      -0.02870400      -0.01297900
C        1.52709100       1.12265000       0.03785500
C        2.93347700       0.94084900       0.07277000
C        3.48023700      -0.37253000       0.05696900
C        3.79427800       2.07240500       0.12351100
C        5.26507800       1.88272800       0.16006300
C        1.24802600      -1.29258500      -0.02698300
C        2.64560500      -1.46904700       0.00777700
C        1.86805800       3.52983300       0.10418700
C        3.26457400       3.34539700       0.13880400
C        4.95087500      -0.56291500       0.09346700
N        5.75909100       0.57580800       0.14293500
O        6.06925500       2.83065500       0.20492200
O        5.48910000      -1.68427500       0.08194900
C       -1.02041300       3.90352800       0.03216900
C       -2.41794600       4.08003500      -0.00262400
C       -2.70602800       1.67000700      -0.06716000
C       -3.25245200       2.98347100      -0.05156500
C       -3.56691500       0.53850500      -0.11766500
C       -3.03687800      -0.73433100      -0.13279200
C       -1.64041100      -0.91883000      -0.09829200
C       -4.72314700       3.17392200      -0.08803700
C       -5.03773600       0.72818300      -0.15412500
N       -5.53143900       2.03522700      -0.13722100
O       -5.26133100       4.29529300      -0.07673500
O       -5.84203300      -0.21964700      -0.19870900
H        0.62972700      -2.20233100      -0.06573200
H        3.07286500      -2.48716200      -0.00439800
H        1.49989900       4.56697900       0.11841200
H        3.93550500       4.22152900       0.17822500
H        6.75033500       0.44779700       0.16755800
H       -0.40199700       4.81321100       0.07071000
H       -2.84532000       5.09816700       0.00933800
H       -3.70773700      -1.61056600      -0.17200800
H       -1.27202900      -1.95588300      -0.11238600
H       -6.52266300       2.16338500      -0.16179200
C        8.43145183       5.11133915      -0.78631136
C        8.54932589       3.85369720      -1.46040093
C        8.85752735       2.65829925      -0.68246217
C        8.60751542       5.22823678       0.62974959
C        8.91552121       4.03294369       1.40777542
C        9.03349981       2.77534357       0.73361624
C        9.33303960       1.61309070       1.48968267
C        9.51146957       1.70860235       2.89794430
C        9.45438608       0.35429702       0.83800370
C        9.76764932      -0.86138329       1.62829073
C        9.09635220       4.08567468       2.78166978
C        9.39377175       2.92884525       3.52924014
C        8.98379333       1.41387264      -1.28110820
C        9.28146473       0.26150413      -0.52684667
C        9.82470254       0.49337277       3.68880261
N        9.93485405      -0.72212375       3.00851950
O        9.88649571      -1.98927215       1.11738876
O        9.99177539       0.51184474       4.92128487
C        8.36826564       3.80076065      -2.83416664
C        8.07081867       4.95752507      -3.58175285
C        8.13197120       6.27358336      -1.54223280
C        7.95339311       6.17770944      -2.95039761
C        8.01083690       7.53245981      -0.89067273
C        8.18396938       7.62490957       0.47415610
C        8.48152182       6.47259737       1.22846993
C        7.64017062       7.39296365      -3.74134289
C        7.69766008       8.74817016      -1.68098287
N        7.53028207       8.60855179      -3.06115812
O        7.47289239       7.37442259      -4.97378635
O        7.57905491       9.87615789      -1.17025830
H        9.01401694       5.03255448       3.33671255
H        9.53277332       2.99986220       4.62235159
H        8.85600245       1.28226036      -2.36635606
H        9.37634608      -0.71706256      -1.02955381
H       10.14597953      -1.54135244       3.54129353
H        8.45042239       2.85377820      -3.38907331
H        7.93158645       4.88657423      -4.67489729
H        8.08930958       8.60348451       0.97695633
H        8.60947438       6.60398750       2.31371075
H        7.31920045       9.42770425      -3.59406245
