80
Dimer: struct; Energy: -4906.06228 eV
C       -1.29972200       1.48833600      -0.03228100
C       -0.45010500       2.63965400       0.01843500
C        0.99654200       2.45238200       0.05441800
C       -0.76903400       0.15867800      -0.04877100
C        0.67752200      -0.02870400      -0.01297900
C        1.52709100       1.12265000       0.03785500
C        2.93347700       0.94084900       0.07277000
C        3.48023700      -0.37253000       0.05696900
C        3.79427800       2.07240500       0.12351100
C        5.26507800       1.88272800       0.16006300
C        1.24802600      -1.29258500      -0.02698300
C        2.64560500      -1.46904700       0.00777700
C        1.86805800       3.52983300       0.10418700
C        3.26457400       3.34539700       0.13880400
C        4.95087500      -0.56291500       0.09346700
N        5.75909100       0.57580800       0.14293500
O        6.06925500       2.83065500       0.20492200
O        5.48910000      -1.68427500       0.08194900
C       -1.02041300       3.90352800       0.03216900
C       -2.41794600       4.08003500      -0.00262400
C       -2.70602800       1.67000700      -0.06716000
C       -3.25245200       2.98347100      -0.05156500
C       -3.56691500       0.53850500      -0.11766500
C       -3.03687800      -0.73433100      -0.13279200
C       -1.64041100      -0.91883000      -0.09829200
C       -4.72314700       3.17392200      -0.08803700
C       -5.03773600       0.72818300      -0.15412500
N       -5.53143900       2.03522700      -0.13722100
O       -5.26133100       4.29529300      -0.07673500
O       -5.84203300      -0.21964700      -0.19870900
H        0.62972700      -2.20233100      -0.06573200
H        3.07286500      -2.48716200      -0.00439800
H        1.49989900       4.56697900       0.11841200
H        3.93550500       4.22152900       0.17822500
H        6.75033500       0.44779700       0.16755800
H       -0.40199700       4.81321100       0.07071000
H       -2.84532000       5.09816700       0.00933800
H       -3.70773700      -1.61056600      -0.17200800
H       -1.27202900      -1.95588300      -0.11238600
H       -6.52266300       2.16338500      -0.16179200
C        2.85477450       7.01696896       5.93487918
C        3.05257951       7.95145643       4.86831430
C        3.57885411       9.27726353       5.17559867
C        3.15918535       7.34748825       7.29428460
C        3.68560922       8.67312825       7.60165055
C        3.88328473       9.60761918       6.53505845
C        4.39495704      10.89653351       6.83352712
C        4.70372550      11.24399848       8.17817975
C        4.59828357      11.83907311       5.78746335
C        5.13332606      13.18708687       6.09915948
C        3.99840203       9.04883951       8.89936694
C        4.50653178      10.33018857       9.19180989
C        3.79073149      10.22310879       4.18393216
C        4.29912213      11.50250865       4.48417687
C        5.23880373      12.59176156       8.49055875
N        5.42294417      13.48616289       7.43297243
O        5.33289560      14.05414039       5.22986737
O        5.52760798      12.95499927       9.64464607
C        2.74011059       7.57582538       3.57059252
C        2.23202570       6.29451171       3.27810527
C        2.34310786       5.72812676       5.63654965
C        2.03465100       5.38090531       4.29181856
C        2.13952730       4.78560123       6.68257764
C        2.43865100       5.12255200       7.98575404
C        2.94713533       6.40185622       8.28604493
C        1.49952282       4.03310685       3.97937223
C        1.60439185       3.43760220       6.37088845
N        1.31508954       3.13874356       5.03695438
O        1.21093278       3.66982844       2.82525471
O        1.40451656       2.57055074       7.24010346
H        3.86093693       8.35983773       9.74660529
H        4.74710982      10.60271868      10.23445414
H        3.56934215      10.00802264       3.12745692
H        4.45810652      12.23643152       3.67461471
H        5.78355765      14.39463061       7.64321534
H        2.87781618       8.26485098       2.72340435
H        1.99160011       6.02179976       2.23541254
H        2.27951140       4.38875941       8.79544564
H        3.16848185       6.61720708       9.34245990
H        0.95442582       2.23033037       4.82657285
