80
Dimer: struct; Energy: -4906.06228 eV
C       -1.29972200       1.48833600      -0.03228100
C       -0.45010500       2.63965400       0.01843500
C        0.99654200       2.45238200       0.05441800
C       -0.76903400       0.15867800      -0.04877100
C        0.67752200      -0.02870400      -0.01297900
C        1.52709100       1.12265000       0.03785500
C        2.93347700       0.94084900       0.07277000
C        3.48023700      -0.37253000       0.05696900
C        3.79427800       2.07240500       0.12351100
C        5.26507800       1.88272800       0.16006300
C        1.24802600      -1.29258500      -0.02698300
C        2.64560500      -1.46904700       0.00777700
C        1.86805800       3.52983300       0.10418700
C        3.26457400       3.34539700       0.13880400
C        4.95087500      -0.56291500       0.09346700
N        5.75909100       0.57580800       0.14293500
O        6.06925500       2.83065500       0.20492200
O        5.48910000      -1.68427500       0.08194900
C       -1.02041300       3.90352800       0.03216900
C       -2.41794600       4.08003500      -0.00262400
C       -2.70602800       1.67000700      -0.06716000
C       -3.25245200       2.98347100      -0.05156500
C       -3.56691500       0.53850500      -0.11766500
C       -3.03687800      -0.73433100      -0.13279200
C       -1.64041100      -0.91883000      -0.09829200
C       -4.72314700       3.17392200      -0.08803700
C       -5.03773600       0.72818300      -0.15412500
N       -5.53143900       2.03522700      -0.13722100
O       -5.26133100       4.29529300      -0.07673500
O       -5.84203300      -0.21964700      -0.19870900
H        0.62972700      -2.20233100      -0.06573200
H        3.07286500      -2.48716200      -0.00439800
H        1.49989900       4.56697900       0.11841200
H        3.93550500       4.22152900       0.17822500
H        6.75033500       0.44779700       0.16755800
H       -0.40199700       4.81321100       0.07071000
H       -2.84532000       5.09816700       0.00933800
H       -3.70773700      -1.61056600      -0.17200800
H       -1.27202900      -1.95588300      -0.11238600
H       -6.52266300       2.16338500      -0.16179200
C        7.23621070       2.41854763       7.16379281
C        7.61515236       1.04326317       7.28606364
C        8.22630190       0.58389711       8.52889597
C        7.44029185       3.35520960       8.22723407
C        8.05123056       2.89594491       9.47011266
C        8.43026108       1.52067142       9.59228598
C        9.02433947       1.07384928      10.80043045
C        9.23537206       1.98929005      11.86888449
C        9.40787705      -0.28890211      10.94107025
C       10.02919705      -0.75657918      12.20432228
C        8.27310375       3.75776343      10.53364791
C        8.86349660       3.31005126      11.73221550
C        8.61352778      -0.73605124       8.70413928
C        9.20341043      -1.17630267       9.90567540
C        9.85658190       1.52229729      13.13236016
N       10.21793450       0.17593324      13.22764083
O       10.38578818      -1.93397874      12.38831034
O       10.06705408       2.27312035      14.10150063
C        7.39310982       0.18131557       6.22278534
C        6.80270480       0.62896195       5.02424522
C        6.64219796       2.86545602       5.95576168
C        6.43111004       1.94975587       4.88761131
C        6.25884217       4.22824086       5.81494344
C        6.46359298       5.11538938       6.85047429
C        7.05334914       4.67519324       8.05204212
C        5.80990092       2.41672015       3.62404922
C        5.63759816       4.69594316       4.55164145
N        5.44877827       3.76314503       3.52859349
O        5.59924697       1.66582971       2.65501303
O        5.28121077       5.87336031       4.36741336
H        7.99605061       4.82158985      10.47935411
H        9.02851775       4.01821216      12.56319905
H        8.47385572      -1.48637328       7.91109213
H        9.50226537      -2.23335329      10.01810052
H       10.63666316      -0.13910211      14.07909653
H        7.67001926      -0.88254474       6.27727694
H        6.63744277      -0.07920346       4.19323703
H        6.16495531       6.17253710       6.73808348
H        7.19322976       5.42536026       8.84517876
H        5.03010444       4.07805177       2.67706593
