80
Dimer: struct; Energy: -4906.06228 eV
C       -1.29972200       1.48833600      -0.03228100
C       -0.45010500       2.63965400       0.01843500
C        0.99654200       2.45238200       0.05441800
C       -0.76903400       0.15867800      -0.04877100
C        0.67752200      -0.02870400      -0.01297900
C        1.52709100       1.12265000       0.03785500
C        2.93347700       0.94084900       0.07277000
C        3.48023700      -0.37253000       0.05696900
C        3.79427800       2.07240500       0.12351100
C        5.26507800       1.88272800       0.16006300
C        1.24802600      -1.29258500      -0.02698300
C        2.64560500      -1.46904700       0.00777700
C        1.86805800       3.52983300       0.10418700
C        3.26457400       3.34539700       0.13880400
C        4.95087500      -0.56291500       0.09346700
N        5.75909100       0.57580800       0.14293500
O        6.06925500       2.83065500       0.20492200
O        5.48910000      -1.68427500       0.08194900
C       -1.02041300       3.90352800       0.03216900
C       -2.41794600       4.08003500      -0.00262400
C       -2.70602800       1.67000700      -0.06716000
C       -3.25245200       2.98347100      -0.05156500
C       -3.56691500       0.53850500      -0.11766500
C       -3.03687800      -0.73433100      -0.13279200
C       -1.64041100      -0.91883000      -0.09829200
C       -4.72314700       3.17392200      -0.08803700
C       -5.03773600       0.72818300      -0.15412500
N       -5.53143900       2.03522700      -0.13722100
O       -5.26133100       4.29529300      -0.07673500
O       -5.84203300      -0.21964700      -0.19870900
H        0.62972700      -2.20233100      -0.06573200
H        3.07286500      -2.48716200      -0.00439800
H        1.49989900       4.56697900       0.11841200
H        3.93550500       4.22152900       0.17822500
H        6.75033500       0.44779700       0.16755800
H       -0.40199700       4.81321100       0.07071000
H       -2.84532000       5.09816700       0.00933800
H       -3.70773700      -1.61056600      -0.17200800
H       -1.27202900      -1.95588300      -0.11238600
H       -6.52266300       2.16338500      -0.16179200
C        2.46370227       2.18127952       6.10775530
C        1.17867481       2.75013360       6.38173298
C        1.08849780       3.90209468       7.27280362
C        3.66236752       2.71159738       6.68382529
C        3.57233983       3.86360669       7.57471638
C        2.28727053       4.43234970       7.84875269
C        2.19935974       5.55227204       8.71491542
C        3.37910793       6.09390429       9.29714328
C        0.93150139       6.13149099       8.99954254
C        0.83912033       7.30265232       9.90530904
C        4.69925835       4.41967330       8.16115537
C        4.60779953       5.53224455       9.02103596
C       -0.12853226       4.49434838       7.57445097
C       -0.21201102       5.60672205       8.43533890
C        3.28745341       7.26501836      10.20292800
N        2.02251802       7.80231756      10.45511503
O       -0.23867631       7.85308324      10.19281345
O        4.28124250       7.78354303      10.74217049
C        0.05176270       2.19438483       5.79519251
C        0.14317357       1.08186682       4.93530212
C        2.55172005       1.06140925       5.24169472
C        1.37185428       0.52016256       4.65947584
C        3.81951039       0.48197746       4.95719442
C        4.96278723       1.00690377       5.52168533
C        4.87939442       2.11931207       6.38246616
C        1.46345163      -0.65101736       3.75366509
C        3.91188215      -0.68925535       4.05148883
N        2.72833609      -1.18854800       3.50165430
O        0.46967293      -1.16938179       3.21427203
O        4.98957002      -1.23995258       3.76411358
H        5.70466411       4.01192616       7.97585981
H        5.52168311       5.95480830       9.47437267
H       -1.07215712       4.11659564       7.15220670
H       -1.19451705       6.05867328       8.65834493
H        1.96043310       8.59163980      11.06558505
H       -0.95357575       2.60235368       5.98040303
H       -0.77067717       0.65933682       4.48172784
H        5.94535299       0.55489601       5.29890525
H        5.82287005       2.49715925       6.80492102
H        2.79026727      -1.97789556       2.89120514
