80
Dimer: struct; Energy: -4906.06228 eV
C       -1.29972200       1.48833600      -0.03228100
C       -0.45010500       2.63965400       0.01843500
C        0.99654200       2.45238200       0.05441800
C       -0.76903400       0.15867800      -0.04877100
C        0.67752200      -0.02870400      -0.01297900
C        1.52709100       1.12265000       0.03785500
C        2.93347700       0.94084900       0.07277000
C        3.48023700      -0.37253000       0.05696900
C        3.79427800       2.07240500       0.12351100
C        5.26507800       1.88272800       0.16006300
C        1.24802600      -1.29258500      -0.02698300
C        2.64560500      -1.46904700       0.00777700
C        1.86805800       3.52983300       0.10418700
C        3.26457400       3.34539700       0.13880400
C        4.95087500      -0.56291500       0.09346700
N        5.75909100       0.57580800       0.14293500
O        6.06925500       2.83065500       0.20492200
O        5.48910000      -1.68427500       0.08194900
C       -1.02041300       3.90352800       0.03216900
C       -2.41794600       4.08003500      -0.00262400
C       -2.70602800       1.67000700      -0.06716000
C       -3.25245200       2.98347100      -0.05156500
C       -3.56691500       0.53850500      -0.11766500
C       -3.03687800      -0.73433100      -0.13279200
C       -1.64041100      -0.91883000      -0.09829200
C       -4.72314700       3.17392200      -0.08803700
C       -5.03773600       0.72818300      -0.15412500
N       -5.53143900       2.03522700      -0.13722100
O       -5.26133100       4.29529300      -0.07673500
O       -5.84203300      -0.21964700      -0.19870900
H        0.62972700      -2.20233100      -0.06573200
H        3.07286500      -2.48716200      -0.00439800
H        1.49989900       4.56697900       0.11841200
H        3.93550500       4.22152900       0.17822500
H        6.75033500       0.44779700       0.16755800
H       -0.40199700       4.81321100       0.07071000
H       -2.84532000       5.09816700       0.00933800
H       -3.70773700      -1.61056600      -0.17200800
H       -1.27202900      -1.95588300      -0.11238600
H       -6.52266300       2.16338500      -0.16179200
C       -0.03904448       6.60649888       4.26139134
C       -0.78002029       5.38746520       4.13946505
C       -0.24507391       4.16945735       4.73900018
C        1.21200397       6.66327197       4.95532697
C        1.74693140       5.44543430       5.55502806
C        1.00596849       4.22640050       5.43297002
C        1.52577617       3.04220457       6.01578409
C        2.76734268       3.07814816       6.70960051
C        0.80433958       1.82102558       5.90522597
C        1.34759080       0.58240563       6.51454099
C        2.95328639       5.44039868       6.23894940
C        3.46630862       4.26194934       6.81656474
C       -0.91844776       2.96031003       4.65269733
C       -0.39899823       1.78597721       5.23285810
C        3.31112840       1.83996366       7.31915028
N        2.56995824       0.66290865       7.18664158
O        0.76496600      -0.51484113       6.45227957
O        4.38983671       1.80684823       7.93766366
C       -1.98644729       5.39239500       3.45585191
C       -2.49951171       6.57079381       2.87826650
C       -0.55870522       7.79066633       3.67862412
C       -1.80035693       7.75444108       2.98508331
C        0.16277491       9.01184330       3.78892904
C        1.36614108       9.04649479       4.46123007
C        1.88557696       7.87225851       5.04149357
C       -2.34420055       8.99264386       2.37546576
C       -0.38043922      10.25045924       3.17952733
N       -1.60293980      10.16968660       2.50769364
O       -3.42300930       9.02577080       1.75714792
O        0.20220253      11.34770777       3.24147388
H        3.55258831       6.35628191       6.35482887
H        4.42963920       4.28676268       7.35567138
H       -1.88226605       2.87509228       4.12809514
H       -0.95642146       0.83648515       5.14887066
H        2.93622774      -0.17178493       7.59736174
H       -2.58576430       4.47648308       3.34021712
H       -3.46298492       6.54612637       2.33929035
H        1.92376564       9.99591399       4.54510807
H        2.84943326       7.95721020       5.56603823
H       -1.96930454      11.00429201       2.09688478
