80
Dimer: struct; Energy: -4906.06228 eV
C       -1.29972200       1.48833600      -0.03228100
C       -0.45010500       2.63965400       0.01843500
C        0.99654200       2.45238200       0.05441800
C       -0.76903400       0.15867800      -0.04877100
C        0.67752200      -0.02870400      -0.01297900
C        1.52709100       1.12265000       0.03785500
C        2.93347700       0.94084900       0.07277000
C        3.48023700      -0.37253000       0.05696900
C        3.79427800       2.07240500       0.12351100
C        5.26507800       1.88272800       0.16006300
C        1.24802600      -1.29258500      -0.02698300
C        2.64560500      -1.46904700       0.00777700
C        1.86805800       3.52983300       0.10418700
C        3.26457400       3.34539700       0.13880400
C        4.95087500      -0.56291500       0.09346700
N        5.75909100       0.57580800       0.14293500
O        6.06925500       2.83065500       0.20492200
O        5.48910000      -1.68427500       0.08194900
C       -1.02041300       3.90352800       0.03216900
C       -2.41794600       4.08003500      -0.00262400
C       -2.70602800       1.67000700      -0.06716000
C       -3.25245200       2.98347100      -0.05156500
C       -3.56691500       0.53850500      -0.11766500
C       -3.03687800      -0.73433100      -0.13279200
C       -1.64041100      -0.91883000      -0.09829200
C       -4.72314700       3.17392200      -0.08803700
C       -5.03773600       0.72818300      -0.15412500
N       -5.53143900       2.03522700      -0.13722100
O       -5.26133100       4.29529300      -0.07673500
O       -5.84203300      -0.21964700      -0.19870900
H        0.62972700      -2.20233100      -0.06573200
H        3.07286500      -2.48716200      -0.00439800
H        1.49989900       4.56697900       0.11841200
H        3.93550500       4.22152900       0.17822500
H        6.75033500       0.44779700       0.16755800
H       -0.40199700       4.81321100       0.07071000
H       -2.84532000       5.09816700       0.00933800
H       -3.70773700      -1.61056600      -0.17200800
H       -1.27202900      -1.95588300      -0.11238600
H       -6.52266300       2.16338500      -0.16179200
C        2.99915282       9.44933456       3.24891644
C        1.84486983       8.64147091       2.99408041
C        1.29387165       8.59794216       1.64365108
C        3.62755065      10.21536519       2.21537626
C        3.07678248      10.17177369       0.86494243
C        1.92242475       9.36398291       0.61018781
C        1.38663551       9.32144975      -0.70256238
C        1.99690801      10.07550236      -1.74329901
C        0.24004507       8.52474243      -0.97561874
C       -0.32059762       8.48000238      -2.34829648
C        3.64340467      10.89248503      -0.17552889
C        3.10822579      10.84758647      -1.47827286
C        0.17792084       7.83360815       1.33809413
C       -0.35155659       7.79382855       0.03289562
C        1.43682748      10.03119438      -3.11614324
N        0.31001223       9.23586631      -3.33995320
O       -1.31986068       7.80344159      -2.64998738
O        1.92460584      10.66710623      -4.06743471
C        1.27833143       7.92053340       4.03432109
C        1.81348111       7.96537216       5.33703674
C        3.53496758       9.49196745       4.56154832
C        2.92461714       8.73766012       5.60198230
C        4.68141566      10.28883069       4.83475107
C        5.27266454      11.01972716       3.82604169
C        4.74332217      10.97990544       2.52083630
C        3.48466463       8.78195321       6.97491001
C        5.24201013      10.33364265       6.20746634
N        4.61132004       9.57748888       7.19885622
O        2.99699459       8.14586507       7.92612632
O        6.24109423      11.01036598       6.50935970
H        4.53086123      11.52486787      -0.02078480
H        3.57972136      11.43172486      -2.28804552
H       -0.33362903       7.23110780       2.10407409
H       -1.24140367       7.17647817      -0.18241901
H       -0.06771045       9.20581915      -4.26514535
H        0.39099178       7.28801756       3.87940505
H        1.34215771       7.38107632       6.14687438
H        6.16241865      11.63728932       4.04129055
H        5.25463089      11.58241650       1.75472491
H        4.98890685       9.60747907       8.12410322
