80
Dimer: struct; Energy: -4906.06228 eV
C       -1.29972200       1.48833600      -0.03228100
C       -0.45010500       2.63965400       0.01843500
C        0.99654200       2.45238200       0.05441800
C       -0.76903400       0.15867800      -0.04877100
C        0.67752200      -0.02870400      -0.01297900
C        1.52709100       1.12265000       0.03785500
C        2.93347700       0.94084900       0.07277000
C        3.48023700      -0.37253000       0.05696900
C        3.79427800       2.07240500       0.12351100
C        5.26507800       1.88272800       0.16006300
C        1.24802600      -1.29258500      -0.02698300
C        2.64560500      -1.46904700       0.00777700
C        1.86805800       3.52983300       0.10418700
C        3.26457400       3.34539700       0.13880400
C        4.95087500      -0.56291500       0.09346700
N        5.75909100       0.57580800       0.14293500
O        6.06925500       2.83065500       0.20492200
O        5.48910000      -1.68427500       0.08194900
C       -1.02041300       3.90352800       0.03216900
C       -2.41794600       4.08003500      -0.00262400
C       -2.70602800       1.67000700      -0.06716000
C       -3.25245200       2.98347100      -0.05156500
C       -3.56691500       0.53850500      -0.11766500
C       -3.03687800      -0.73433100      -0.13279200
C       -1.64041100      -0.91883000      -0.09829200
C       -4.72314700       3.17392200      -0.08803700
C       -5.03773600       0.72818300      -0.15412500
N       -5.53143900       2.03522700      -0.13722100
O       -5.26133100       4.29529300      -0.07673500
O       -5.84203300      -0.21964700      -0.19870900
H        0.62972700      -2.20233100      -0.06573200
H        3.07286500      -2.48716200      -0.00439800
H        1.49989900       4.56697900       0.11841200
H        3.93550500       4.22152900       0.17822500
H        6.75033500       0.44779700       0.16755800
H       -0.40199700       4.81321100       0.07071000
H       -2.84532000       5.09816700       0.00933800
H       -3.70773700      -1.61056600      -0.17200800
H       -1.27202900      -1.95588300      -0.11238600
H       -6.52266300       2.16338500      -0.16179200
C        9.11342577       7.24686641       2.36839564
C        9.73666556       8.48064225       2.74165647
C        9.43800175       9.68616601       1.97571555
C        8.20534733       7.16349244       1.26461378
C        7.90648116       8.36892042       0.49875495
C        8.52984154       9.60264903       0.87198836
C        8.23959749      10.77474245       0.12757741
C        7.33971650      10.71243820      -0.97264663
C        8.84906859      12.01017470       0.48285774
C        8.54583756      13.23613461      -0.29537057
C        7.03496545       8.34832139      -0.57971718
C        6.74917166       9.51483174      -1.31670406
C       10.01187864      10.90855234       2.29092141
C        9.72122522      12.07078336       1.54915894
C        7.03603186      11.93796469      -1.75124483
N        7.65660761      13.12972223      -1.36790430
O        9.04608938      14.34477914      -0.03472906
O        6.25881155      11.94812717      -2.72237426
C       10.60793912       8.50145791       3.82020476
C       10.89372829       7.33501299       4.55722210
C        9.40360608       6.07478369       3.11266369
C       10.30333063       6.13745752       4.21292629
C        8.79436362       4.83925833       2.75731222
C        7.92238291       4.77898480       1.69087128
C        7.63160724       5.94116500       0.94915913
C       10.60708433       4.91190365       4.99157703
C        9.09766962       3.61326486       3.53549406
N        9.98675697       3.72004303       4.60811446
O       11.38413805       4.90181818       5.96282802
O        8.59770808       2.50450853       3.27480084
H        6.53577127       7.42051476      -0.89817119
H        6.05115282       9.46957102      -2.17109194
H       10.71455506      11.01419309       3.13145761
H       10.19257685      13.03127906       1.82226213
H        7.45212701      13.95588332      -1.89250254
H       11.10691629       9.42937686       4.13869357
H       11.59160921       7.38021449       5.41180003
H        7.45111626       3.81847600       1.41754353
H        6.92905694       5.83574056       0.10850960
H       10.19136534       2.89395301       5.13277045
