80
Dimer: struct; Energy: -4906.06228 eV
C       -1.29972200       1.48833600      -0.03228100
C       -0.45010500       2.63965400       0.01843500
C        0.99654200       2.45238200       0.05441800
C       -0.76903400       0.15867800      -0.04877100
C        0.67752200      -0.02870400      -0.01297900
C        1.52709100       1.12265000       0.03785500
C        2.93347700       0.94084900       0.07277000
C        3.48023700      -0.37253000       0.05696900
C        3.79427800       2.07240500       0.12351100
C        5.26507800       1.88272800       0.16006300
C        1.24802600      -1.29258500      -0.02698300
C        2.64560500      -1.46904700       0.00777700
C        1.86805800       3.52983300       0.10418700
C        3.26457400       3.34539700       0.13880400
C        4.95087500      -0.56291500       0.09346700
N        5.75909100       0.57580800       0.14293500
O        6.06925500       2.83065500       0.20492200
O        5.48910000      -1.68427500       0.08194900
C       -1.02041300       3.90352800       0.03216900
C       -2.41794600       4.08003500      -0.00262400
C       -2.70602800       1.67000700      -0.06716000
C       -3.25245200       2.98347100      -0.05156500
C       -3.56691500       0.53850500      -0.11766500
C       -3.03687800      -0.73433100      -0.13279200
C       -1.64041100      -0.91883000      -0.09829200
C       -4.72314700       3.17392200      -0.08803700
C       -5.03773600       0.72818300      -0.15412500
N       -5.53143900       2.03522700      -0.13722100
O       -5.26133100       4.29529300      -0.07673500
O       -5.84203300      -0.21964700      -0.19870900
H        0.62972700      -2.20233100      -0.06573200
H        3.07286500      -2.48716200      -0.00439800
H        1.49989900       4.56697900       0.11841200
H        3.93550500       4.22152900       0.17822500
H        6.75033500       0.44779700       0.16755800
H       -0.40199700       4.81321100       0.07071000
H       -2.84532000       5.09816700       0.00933800
H       -3.70773700      -1.61056600      -0.17200800
H       -1.27202900      -1.95588300      -0.11238600
H       -6.52266300       2.16338500      -0.16179200
C        4.53893394      11.39936284       4.69218059
C        4.05310675      10.07799860       4.43156063
C        3.96651534       9.61376418       3.05092981
C        4.94213054      12.27745900       3.63564299
C        4.85576191      11.81329494       2.25505995
C        4.36981555      10.49195964       1.99448983
C        4.28561320      10.04040620       0.65240128
C        4.68164967      10.89803390      -0.41145511
C        3.80526603       8.73073746       0.37310503
C        3.71702596       8.25813648      -1.03025809
C        5.23227243      12.61958337       1.19147879
C        5.14718167      12.16735378      -0.14037035
C        3.50370900       8.34448897       2.73841024
C        3.42140973       7.89936878       1.40403145
C        4.59370170      10.42608038      -1.81497914
N        4.11635302       9.13299583      -2.04393512
O        3.30591717       7.12541456      -1.33881794
O        4.92439404      11.12771580      -2.78740774
C        3.67683784       9.27154297       5.49498358
C        3.76194161       9.72370401       6.82681371
C        4.62313803      11.85100200       6.03413782
C        4.22724217      10.99308936       7.09774603
C        5.10325188      13.16073937       6.31351691
C        5.48687523      13.99188513       5.28234797
C        5.40471047      13.54680141       3.94799432
C        4.31514877      11.46502084       8.50134807
C        5.19140649      13.63337845       7.71689232
N        4.79222647      12.75820698       8.73036291
O        3.98465342      10.76328841       9.47376109
O        5.60223397      14.76616041       8.02558135
H        5.61076481      13.64091232       1.34979374
H        5.45384741      12.83070411      -0.96812632
H        3.18434747       7.63997334       3.52140524
H        3.04901748       6.88343086       1.18379553
H        4.05695184       8.81463300      -2.98980741
H        3.29855284       8.25014844       5.33655195
H        3.45548020       9.06032043       7.65469536
H        5.85910172      15.00794425       5.50245877
H        5.72390100      14.25118378       3.16483039
H        4.85152959      13.07645454       9.67627774
