80
Dimer: struct; Energy: -4906.06228 eV
C       -1.29972200       1.48833600      -0.03228100
C       -0.45010500       2.63965400       0.01843500
C        0.99654200       2.45238200       0.05441800
C       -0.76903400       0.15867800      -0.04877100
C        0.67752200      -0.02870400      -0.01297900
C        1.52709100       1.12265000       0.03785500
C        2.93347700       0.94084900       0.07277000
C        3.48023700      -0.37253000       0.05696900
C        3.79427800       2.07240500       0.12351100
C        5.26507800       1.88272800       0.16006300
C        1.24802600      -1.29258500      -0.02698300
C        2.64560500      -1.46904700       0.00777700
C        1.86805800       3.52983300       0.10418700
C        3.26457400       3.34539700       0.13880400
C        4.95087500      -0.56291500       0.09346700
N        5.75909100       0.57580800       0.14293500
O        6.06925500       2.83065500       0.20492200
O        5.48910000      -1.68427500       0.08194900
C       -1.02041300       3.90352800       0.03216900
C       -2.41794600       4.08003500      -0.00262400
C       -2.70602800       1.67000700      -0.06716000
C       -3.25245200       2.98347100      -0.05156500
C       -3.56691500       0.53850500      -0.11766500
C       -3.03687800      -0.73433100      -0.13279200
C       -1.64041100      -0.91883000      -0.09829200
C       -4.72314700       3.17392200      -0.08803700
C       -5.03773600       0.72818300      -0.15412500
N       -5.53143900       2.03522700      -0.13722100
O       -5.26133100       4.29529300      -0.07673500
O       -5.84203300      -0.21964700      -0.19870900
H        0.62972700      -2.20233100      -0.06573200
H        3.07286500      -2.48716200      -0.00439800
H        1.49989900       4.56697900       0.11841200
H        3.93550500       4.22152900       0.17822500
H        6.75033500       0.44779700       0.16755800
H       -0.40199700       4.81321100       0.07071000
H       -2.84532000       5.09816700       0.00933800
H       -3.70773700      -1.61056600      -0.17200800
H       -1.27202900      -1.95588300      -0.11238600
H       -6.52266300       2.16338500      -0.16179200
C        0.91315382       9.55102269       4.30729886
C        0.57878338       8.58755101       5.31222324
C        1.17910547       8.70697218       6.63680057
C        1.82004136      10.62822529       4.56630007
C        2.42025055      10.74784888       5.89082130
C        2.08593414       9.78427862       6.89567577
C        2.66935252       9.90020694       8.18345520
C        3.57280282      10.96377482       8.46051382
C        2.34973179       8.95256206       9.19527721
C        2.95964667       9.07341454      10.54211223
C        3.30490175      11.77031134       6.19908884
C        3.88235240      11.88209212       7.47956920
C        0.89264126       7.80341413       7.64894623
C        1.47412468       7.92171077       8.92697395
C        4.18302247      11.08523077       9.80707800
N        3.84140456      10.13293447      10.77080992
O        2.72053397       8.27757867      11.46771958
O        4.97896724      11.99163413      10.11067635
C       -0.30600600       7.56525277       5.00421124
C       -0.88349221       7.45345496       3.72379151
C        0.32986182       9.43517721       3.01956141
C       -0.57368445       8.37166054       2.74289103
C        0.64960398      10.38263937       2.00760570
C        1.52535731      11.41326431       2.27620923
C        2.10677129      11.53168136       3.55420978
C       -1.18393987       8.25013642       1.39627832
C        0.03975176      10.26173173       0.66072667
N       -0.84214614       9.20224244       0.43240462
O       -1.98004194       7.34385188       1.09277791
O        0.27898039      11.05732737      -0.26504886
H        3.58727002      12.53046872       5.45486989
H        4.58385687      12.70648906       7.69755697
H        0.20109571       6.96205809       7.48988654
H        1.22818723       7.18786575       9.71456265
H        4.25254784      10.21453320      11.67847761
H       -0.58845930       6.80526855       5.74858416
H       -1.58520518       6.62917132       3.50575533
H        1.77153197      12.14707036       1.48861531
H        2.79843631      12.37288332       3.71346318
H       -1.25332607       9.12049434      -0.47523051
