80
Dimer: struct; Energy: -4906.06228 eV
C       -1.29972200       1.48833600      -0.03228100
C       -0.45010500       2.63965400       0.01843500
C        0.99654200       2.45238200       0.05441800
C       -0.76903400       0.15867800      -0.04877100
C        0.67752200      -0.02870400      -0.01297900
C        1.52709100       1.12265000       0.03785500
C        2.93347700       0.94084900       0.07277000
C        3.48023700      -0.37253000       0.05696900
C        3.79427800       2.07240500       0.12351100
C        5.26507800       1.88272800       0.16006300
C        1.24802600      -1.29258500      -0.02698300
C        2.64560500      -1.46904700       0.00777700
C        1.86805800       3.52983300       0.10418700
C        3.26457400       3.34539700       0.13880400
C        4.95087500      -0.56291500       0.09346700
N        5.75909100       0.57580800       0.14293500
O        6.06925500       2.83065500       0.20492200
O        5.48910000      -1.68427500       0.08194900
C       -1.02041300       3.90352800       0.03216900
C       -2.41794600       4.08003500      -0.00262400
C       -2.70602800       1.67000700      -0.06716000
C       -3.25245200       2.98347100      -0.05156500
C       -3.56691500       0.53850500      -0.11766500
C       -3.03687800      -0.73433100      -0.13279200
C       -1.64041100      -0.91883000      -0.09829200
C       -4.72314700       3.17392200      -0.08803700
C       -5.03773600       0.72818300      -0.15412500
N       -5.53143900       2.03522700      -0.13722100
O       -5.26133100       4.29529300      -0.07673500
O       -5.84203300      -0.21964700      -0.19870900
H        0.62972700      -2.20233100      -0.06573200
H        3.07286500      -2.48716200      -0.00439800
H        1.49989900       4.56697900       0.11841200
H        3.93550500       4.22152900       0.17822500
H        6.75033500       0.44779700       0.16755800
H       -0.40199700       4.81321100       0.07071000
H       -2.84532000       5.09816700       0.00933800
H       -3.70773700      -1.61056600      -0.17200800
H       -1.27202900      -1.95588300      -0.11238600
H       -6.52266300       2.16338500      -0.16179200
C        8.27288010       1.85811976       2.65591516
C        8.64910970       0.49011008       2.46367806
C        7.93781316      -0.55090649       3.19818120
C        7.21811371       2.23264212       3.54871576
C        6.50666205       1.19175663       4.28309392
C        6.88301253      -0.17623162       4.09090633
C        6.19162673      -1.18843446       4.80478539
C        5.14042136      -0.83649667       5.69656318
C        6.55094564      -2.55349897       4.62741348
C        5.82819540      -3.61233106       5.37378655
C        5.47685767       1.49507074       5.16091486
C        4.79242250       0.48668528       5.86822061
C        8.25867701      -1.89205769       3.05231276
C        7.56970719      -2.89480932       3.76314443
C        4.41727011      -1.89477621       6.44318985
N        4.80268838      -3.22221494       6.23896103
O        6.09515264      -4.82209742       5.26208269
O        3.49045097      -1.65121982       7.23625582
C        9.67864680       0.18663285       1.58574169
C       10.36306801       1.19495322       0.87840768
C        8.96417566       2.87033828       1.94216339
C       10.01515264       2.51807289       1.05033013
C        8.60508319       4.23544847       2.11964776
C        7.58638469       4.57640590       2.98410188
C        6.89731964       3.57372654       3.69485759
C       10.73838608       3.57635932       0.30366502
C        9.32790403       5.29430041       1.37333408
N       10.35320581       4.90385331       0.50805972
O       11.66505123       3.33275492      -0.48955076
O        9.06124005       6.50411534       1.48514317
H        5.15770589       2.53374113       5.33623989
H        3.97612461       0.75677678       6.56101628
H        9.06268120      -2.22068612       2.37629809
H        7.84610419      -3.95527744       3.62778649
H        4.31547474      -3.93570689       6.74206129
H        9.99757189      -0.85210145       1.41034287
H       11.17928403       0.92493398       0.18539584
H        7.31002945       5.63688664       3.11969627
H        6.09336378       3.90212631       4.37101690
H       10.84053560       5.61724306       0.00493153
