80
Dimer: struct; Energy: -4906.06228 eV
C       -1.29972200       1.48833600      -0.03228100
C       -0.45010500       2.63965400       0.01843500
C        0.99654200       2.45238200       0.05441800
C       -0.76903400       0.15867800      -0.04877100
C        0.67752200      -0.02870400      -0.01297900
C        1.52709100       1.12265000       0.03785500
C        2.93347700       0.94084900       0.07277000
C        3.48023700      -0.37253000       0.05696900
C        3.79427800       2.07240500       0.12351100
C        5.26507800       1.88272800       0.16006300
C        1.24802600      -1.29258500      -0.02698300
C        2.64560500      -1.46904700       0.00777700
C        1.86805800       3.52983300       0.10418700
C        3.26457400       3.34539700       0.13880400
C        4.95087500      -0.56291500       0.09346700
N        5.75909100       0.57580800       0.14293500
O        6.06925500       2.83065500       0.20492200
O        5.48910000      -1.68427500       0.08194900
C       -1.02041300       3.90352800       0.03216900
C       -2.41794600       4.08003500      -0.00262400
C       -2.70602800       1.67000700      -0.06716000
C       -3.25245200       2.98347100      -0.05156500
C       -3.56691500       0.53850500      -0.11766500
C       -3.03687800      -0.73433100      -0.13279200
C       -1.64041100      -0.91883000      -0.09829200
C       -4.72314700       3.17392200      -0.08803700
C       -5.03773600       0.72818300      -0.15412500
N       -5.53143900       2.03522700      -0.13722100
O       -5.26133100       4.29529300      -0.07673500
O       -5.84203300      -0.21964700      -0.19870900
H        0.62972700      -2.20233100      -0.06573200
H        3.07286500      -2.48716200      -0.00439800
H        1.49989900       4.56697900       0.11841200
H        3.93550500       4.22152900       0.17822500
H        6.75033500       0.44779700       0.16755800
H       -0.40199700       4.81321100       0.07071000
H       -2.84532000       5.09816700       0.00933800
H       -3.70773700      -1.61056600      -0.17200800
H       -1.27202900      -1.95588300      -0.11238600
H       -6.52266300       2.16338500      -0.16179200
C       10.79349238       9.11782137       1.72231824
C        9.65332710       8.32413153       1.37585919
C        9.49610526       7.00616738       1.98199854
C       11.78330417       8.65403227       2.64701515
C       11.62610273       7.33623357       3.25332500
C       10.48597571       6.54253559       2.90673949
C       10.33287875       5.26127860       3.49592036
C       11.30562265       4.78262249       4.41723366
C        9.20679856       4.45760839       3.16421331
C        9.04632849       3.11764959       3.78010764
C       12.55257912       6.83513815       4.15532887
C       12.39693427       5.56185428       4.73850726
C        8.41265503       6.19355741       1.68414226
C        8.26390037       4.92133638       2.27133695
C       11.14575975       3.44283690       5.03349100
N       10.02510859       2.68705700       4.67953060
O        8.08504426       2.36853897       3.53102037
O       11.96083767       2.96897495       5.84489096
C        8.72667986       8.82516756       0.47413578
C        8.88226015      10.09842405      -0.10902495
C       10.94669800      10.39899136       1.13320963
C        9.97370482      10.87743368       0.21213022
C       12.07286759      11.20263637       1.46467714
C       13.01563883      10.73853550       2.35746619
C       12.86689142       9.46640972       2.94476545
C       10.13353791      12.21725898      -0.40420338
C       12.23338651      12.54257417       0.84870484
N       11.25432148      12.97298398      -0.05050118
O        9.31833595      12.69117766      -1.21543055
O       13.19475076      13.29167306       1.09748733
H       13.44196640       7.41392387       4.44761346
H       13.15024347       5.18769416       5.45390012
H        7.63073445       6.51347797       0.97868760
H        7.39105355       4.29502160       2.01603725
H        9.91710476       1.78399909       5.09471654
H        7.83721731       8.24636701       0.18208577
H        8.12885895      10.47277921      -0.82430758
H       13.88865583      11.36469702       2.61269263
H       13.64874632       9.14623091       3.65015281
H       11.36222227      13.87600051      -0.46579842
