80
Dimer: struct; Energy: -4906.06228 eV
C       -1.29972200       1.48833600      -0.03228100
C       -0.45010500       2.63965400       0.01843500
C        0.99654200       2.45238200       0.05441800
C       -0.76903400       0.15867800      -0.04877100
C        0.67752200      -0.02870400      -0.01297900
C        1.52709100       1.12265000       0.03785500
C        2.93347700       0.94084900       0.07277000
C        3.48023700      -0.37253000       0.05696900
C        3.79427800       2.07240500       0.12351100
C        5.26507800       1.88272800       0.16006300
C        1.24802600      -1.29258500      -0.02698300
C        2.64560500      -1.46904700       0.00777700
C        1.86805800       3.52983300       0.10418700
C        3.26457400       3.34539700       0.13880400
C        4.95087500      -0.56291500       0.09346700
N        5.75909100       0.57580800       0.14293500
O        6.06925500       2.83065500       0.20492200
O        5.48910000      -1.68427500       0.08194900
C       -1.02041300       3.90352800       0.03216900
C       -2.41794600       4.08003500      -0.00262400
C       -2.70602800       1.67000700      -0.06716000
C       -3.25245200       2.98347100      -0.05156500
C       -3.56691500       0.53850500      -0.11766500
C       -3.03687800      -0.73433100      -0.13279200
C       -1.64041100      -0.91883000      -0.09829200
C       -4.72314700       3.17392200      -0.08803700
C       -5.03773600       0.72818300      -0.15412500
N       -5.53143900       2.03522700      -0.13722100
O       -5.26133100       4.29529300      -0.07673500
O       -5.84203300      -0.21964700      -0.19870900
H        0.62972700      -2.20233100      -0.06573200
H        3.07286500      -2.48716200      -0.00439800
H        1.49989900       4.56697900       0.11841200
H        3.93550500       4.22152900       0.17822500
H        6.75033500       0.44779700       0.16755800
H       -0.40199700       4.81321100       0.07071000
H       -2.84532000       5.09816700       0.00933800
H       -3.70773700      -1.61056600      -0.17200800
H       -1.27202900      -1.95588300      -0.11238600
H       -6.52266300       2.16338500      -0.16179200
C        5.73054118       9.38092192       2.89538718
C        5.77121339       8.87649695       1.55603826
C        6.65540178       9.51275953       0.58519639
C        6.53346238      10.49212035       3.30824023
C        7.41777663      11.12831245       2.33758825
C        7.45832197      10.62391910       0.99821860
C        8.31785744      11.24224870       0.05425911
C        9.12373800      12.34764657       0.44517168
C        8.37218644      10.75560212      -1.28147868
C        9.27089870      11.40195504      -2.26895538
C        8.21824007      12.20753713       2.68051458
C        9.07082445      12.81904867       1.73991496
C        6.73628553       9.06752586      -0.72558298
C        7.59124461       9.68426276      -1.66054420
C       10.02265178      12.99441536      -0.54174211
N       10.04468510      12.48440691      -1.84241739
O        9.36307646      11.02335065      -3.45024305
O       10.75085900      13.96315834      -0.26153086
C        4.97106310       7.79717500       1.21304997
C        4.11851321       7.18562630       2.15359802
C        4.87107321       8.76273362       3.83935513
C        4.06550743       7.65725931       3.44820251
C        4.81650283       9.24945955       5.17505491
C        5.59746127      10.32090164       5.55373062
C        6.45249978      10.93759450       4.61887807
C        3.16651761       7.01044078       4.43511116
C        3.91771103       8.60315598       6.16251959
N        3.14422323       7.52058015       5.73574259
O        2.43848746       6.04156970       4.15492625
O        3.82522813       8.98182204       7.34375709
H        8.21603244      12.62457771       3.69909458
H        9.69747022      13.67712129       2.04038786
H        6.13567094       8.21684305      -1.08197616
H        7.63579679       9.30902369      -2.69809923
H       10.65044400      12.92013560      -2.50781535
H        4.97351305       7.38008913       0.19448221
H        3.49194989       6.32737165       1.85326195
H        5.55283917      10.69636495       6.59123418
H        7.05311521      11.78836655       4.97501131
H        2.53838487       7.08478587       6.40102183
