80
Dimer: struct; Energy: -4906.06228 eV
C       -1.29972200       1.48833600      -0.03228100
C       -0.45010500       2.63965400       0.01843500
C        0.99654200       2.45238200       0.05441800
C       -0.76903400       0.15867800      -0.04877100
C        0.67752200      -0.02870400      -0.01297900
C        1.52709100       1.12265000       0.03785500
C        2.93347700       0.94084900       0.07277000
C        3.48023700      -0.37253000       0.05696900
C        3.79427800       2.07240500       0.12351100
C        5.26507800       1.88272800       0.16006300
C        1.24802600      -1.29258500      -0.02698300
C        2.64560500      -1.46904700       0.00777700
C        1.86805800       3.52983300       0.10418700
C        3.26457400       3.34539700       0.13880400
C        4.95087500      -0.56291500       0.09346700
N        5.75909100       0.57580800       0.14293500
O        6.06925500       2.83065500       0.20492200
O        5.48910000      -1.68427500       0.08194900
C       -1.02041300       3.90352800       0.03216900
C       -2.41794600       4.08003500      -0.00262400
C       -2.70602800       1.67000700      -0.06716000
C       -3.25245200       2.98347100      -0.05156500
C       -3.56691500       0.53850500      -0.11766500
C       -3.03687800      -0.73433100      -0.13279200
C       -1.64041100      -0.91883000      -0.09829200
C       -4.72314700       3.17392200      -0.08803700
C       -5.03773600       0.72818300      -0.15412500
N       -5.53143900       2.03522700      -0.13722100
O       -5.26133100       4.29529300      -0.07673500
O       -5.84203300      -0.21964700      -0.19870900
H        0.62972700      -2.20233100      -0.06573200
H        3.07286500      -2.48716200      -0.00439800
H        1.49989900       4.56697900       0.11841200
H        3.93550500       4.22152900       0.17822500
H        6.75033500       0.44779700       0.16755800
H       -0.40199700       4.81321100       0.07071000
H       -2.84532000       5.09816700       0.00933800
H       -3.70773700      -1.61056600      -0.17200800
H       -1.27202900      -1.95588300      -0.11238600
H       -6.52266300       2.16338500      -0.16179200
C        4.09148037       9.67535274       3.50936831
C        4.55270830       8.36126592       3.17710499
C        3.64638182       7.22935590       3.33990891
C        2.76572261       9.90927927       3.99674581
C        1.85929647       8.77753278       4.15940765
C        2.32061666       7.46344929       3.82723920
C        1.43969411       6.36291915       3.98535663
C        0.11828265       6.57484145       4.46818294
C        1.87954699       5.04948154       3.66072905
C        0.95864115       3.89830957       3.82596095
C        0.56441081       8.94381738       4.62704710
C       -0.30769795       7.84802206       4.78271691
C        4.03799575       5.93467383       3.03436905
C        3.16018762       4.84387432       3.19273962
C       -0.80310664       5.42417675       4.63361328
N       -0.33001715       4.15169415       4.30297053
O        1.28355442       2.72748101       3.55974592
O       -1.96878428       5.54449232       5.05073062
C        5.84739569       8.19486241       2.70922489
C        6.71950422       9.29060113       2.55351006
C        4.97227059      10.77587601       3.35133477
C        6.29350173      10.56365932       2.86830019
C        4.53258284      12.08932103       3.67615903
C        3.25194044      12.29454079       4.14426097
C        2.37407108      11.20383353       4.30254320
C        7.21498142      11.71433429       2.70286781
C        5.45353073      13.24049556       3.51101158
N        6.74204713      12.98682148       3.03376177
O        8.38057518      11.59401291       2.28554702
O        5.12884703      14.41133205       3.77744265
H        0.17208183       9.93716116       4.89309037
H       -1.33383980       8.00940248       5.15721224
H        5.04811269       5.71332222       2.65743077
H        3.49842920       3.82314758       2.94170326
H       -0.95080341       3.37595606       4.41438239
H        6.23954512       7.20148516       2.44301560
H        7.74565057       9.12934227       2.17880531
H        2.91364707      13.31522667       4.39552855
H        1.36395049      11.42492837       4.67957944
H        7.36295437      13.76245927       2.92234613
