80
Dimer: struct; Energy: -4906.06228 eV
C       -1.29972200       1.48833600      -0.03228100
C       -0.45010500       2.63965400       0.01843500
C        0.99654200       2.45238200       0.05441800
C       -0.76903400       0.15867800      -0.04877100
C        0.67752200      -0.02870400      -0.01297900
C        1.52709100       1.12265000       0.03785500
C        2.93347700       0.94084900       0.07277000
C        3.48023700      -0.37253000       0.05696900
C        3.79427800       2.07240500       0.12351100
C        5.26507800       1.88272800       0.16006300
C        1.24802600      -1.29258500      -0.02698300
C        2.64560500      -1.46904700       0.00777700
C        1.86805800       3.52983300       0.10418700
C        3.26457400       3.34539700       0.13880400
C        4.95087500      -0.56291500       0.09346700
N        5.75909100       0.57580800       0.14293500
O        6.06925500       2.83065500       0.20492200
O        5.48910000      -1.68427500       0.08194900
C       -1.02041300       3.90352800       0.03216900
C       -2.41794600       4.08003500      -0.00262400
C       -2.70602800       1.67000700      -0.06716000
C       -3.25245200       2.98347100      -0.05156500
C       -3.56691500       0.53850500      -0.11766500
C       -3.03687800      -0.73433100      -0.13279200
C       -1.64041100      -0.91883000      -0.09829200
C       -4.72314700       3.17392200      -0.08803700
C       -5.03773600       0.72818300      -0.15412500
N       -5.53143900       2.03522700      -0.13722100
O       -5.26133100       4.29529300      -0.07673500
O       -5.84203300      -0.21964700      -0.19870900
H        0.62972700      -2.20233100      -0.06573200
H        3.07286500      -2.48716200      -0.00439800
H        1.49989900       4.56697900       0.11841200
H        3.93550500       4.22152900       0.17822500
H        6.75033500       0.44779700       0.16755800
H       -0.40199700       4.81321100       0.07071000
H       -2.84532000       5.09816700       0.00933800
H       -3.70773700      -1.61056600      -0.17200800
H       -1.27202900      -1.95588300      -0.11238600
H       -6.52266300       2.16338500      -0.16179200
C        9.59088732       0.46039231       4.88254393
C        8.68989290       0.76971960       3.81367538
C        7.99922143       2.05506304       3.81795259
C        9.83283809       1.37738715       5.95514467
C        9.14240225       2.66276542       5.95943323
C        8.24132702       2.97199322       4.89059778
C        7.56983198       4.22150170       4.89449996
C        7.79700879       5.14634623       5.95148334
C        6.67055372       4.54716652       3.84130813
C        5.96810530       5.85373396       3.84501970
C        9.33761671       3.59014588       6.97181799
C        8.66870405       4.83035954       6.97211047
C        7.11553348       2.40887155       2.80957128
C        6.45025684       3.65097736       2.81678721
C        7.09494953       6.45304010       5.95579739
N        6.22061500       6.73184578       4.90215762
O        5.17085393       6.19654280       2.95386824
O        7.25120823       7.30285394       6.85059722
C        8.49479145      -0.15738557       2.80113958
C        9.16368957      -1.39756255       2.80078650
C       10.26236256      -0.78901722       4.87876180
C       10.03514369      -1.71352363       3.82156288
C       11.16148089      -1.11486629       5.93203411
C       11.38142174      -0.21851144       6.95646250
C       10.71628438       1.02361996       6.96368080
C       10.73718691      -3.02029903       3.81721173
C       11.86386813      -2.42148798       5.92836967
N       11.61132890      -3.29929025       4.87097688
O       10.58107106      -3.86999721       2.92229076
O       12.66093040      -2.76454015       6.81958797
H       10.02165839       3.39049139       7.81066123
H        8.84301962       5.55017694       7.79109429
H        6.90255801       1.73215787       1.96807542
H        5.75161940       3.90686598       2.00086048
H        5.74727617       7.61247119       4.90480711
H        7.81087562       0.04247179       1.96223369
H        8.98959080      -2.11739984       1.98169658
H       12.07990208      -0.47438329       7.77257050
H       10.92901031       1.70044079       7.80513436
H       12.08456216      -4.17996950       4.86822409
