80
Dimer: struct; Energy: -4906.06228 eV
C       -1.29972200       1.48833600      -0.03228100
C       -0.45010500       2.63965400       0.01843500
C        0.99654200       2.45238200       0.05441800
C       -0.76903400       0.15867800      -0.04877100
C        0.67752200      -0.02870400      -0.01297900
C        1.52709100       1.12265000       0.03785500
C        2.93347700       0.94084900       0.07277000
C        3.48023700      -0.37253000       0.05696900
C        3.79427800       2.07240500       0.12351100
C        5.26507800       1.88272800       0.16006300
C        1.24802600      -1.29258500      -0.02698300
C        2.64560500      -1.46904700       0.00777700
C        1.86805800       3.52983300       0.10418700
C        3.26457400       3.34539700       0.13880400
C        4.95087500      -0.56291500       0.09346700
N        5.75909100       0.57580800       0.14293500
O        6.06925500       2.83065500       0.20492200
O        5.48910000      -1.68427500       0.08194900
C       -1.02041300       3.90352800       0.03216900
C       -2.41794600       4.08003500      -0.00262400
C       -2.70602800       1.67000700      -0.06716000
C       -3.25245200       2.98347100      -0.05156500
C       -3.56691500       0.53850500      -0.11766500
C       -3.03687800      -0.73433100      -0.13279200
C       -1.64041100      -0.91883000      -0.09829200
C       -4.72314700       3.17392200      -0.08803700
C       -5.03773600       0.72818300      -0.15412500
N       -5.53143900       2.03522700      -0.13722100
O       -5.26133100       4.29529300      -0.07673500
O       -5.84203300      -0.21964700      -0.19870900
H        0.62972700      -2.20233100      -0.06573200
H        3.07286500      -2.48716200      -0.00439800
H        1.49989900       4.56697900       0.11841200
H        3.93550500       4.22152900       0.17822500
H        6.75033500       0.44779700       0.16755800
H       -0.40199700       4.81321100       0.07071000
H       -2.84532000       5.09816700       0.00933800
H       -3.70773700      -1.61056600      -0.17200800
H       -1.27202900      -1.95588300      -0.11238600
H       -6.52266300       2.16338500      -0.16179200
C        0.81291716       8.89989449       6.56020831
C        0.84650164      10.28308984       6.19197333
C        1.01217177      11.29061016       7.23437889
C        0.93750175       8.47822099       7.92276555
C        1.10335169       9.48558498       8.96518050
C        1.13681182      10.86877613       8.59690033
C        1.29793011      11.84841273       9.61008604
C        1.42356787      11.44944081      10.96993792
C        1.33354585      13.22792057       9.26416463
C        1.50199374      14.25271082      10.32340790
C        1.22907937       9.13613643      10.30127344
C        1.38901107      10.11227116      11.30484556
C        1.05167962      12.64449938       6.93715702
C        1.21182635      13.61481024       7.94627632
C        1.59206659      12.47365787      12.02962762
N        1.62161584      13.81677088      11.64553839
O        1.54076582      15.47295484      10.08512272
O        1.70706570      12.18854344      13.23492926
C        0.72106814      10.63266194       4.85597816
C        0.56117413       9.65658808       3.85239584
C        0.65177761       7.92024180       5.54717716
C        0.52638712       8.31950904       4.18744447
C        0.61591501       6.54072205       5.89302841
C        0.73751101       6.15420285       7.21101811
C        0.89776869       7.12442592       8.22014391
C        0.35785312       7.29529138       3.12767089
C        0.44737312       5.51592434       4.83378115
N        0.32801153       5.95216222       3.51172149
O        0.24307319       7.58042526       1.92236308
O        0.40830976       4.29567241       5.07194579
H        1.20842343       8.08440812      10.62511570
H        1.48679448       9.80564968      12.36110271
H        0.95936205      13.00902083       5.90274085
H        1.23987198      14.68637583       7.68119081
H        1.73515705      14.50731454      12.35955213
H        0.74194766      11.68442306       4.53223517
H        0.46358575       9.96311288       2.79603252
H        0.70927492       5.08264689       7.47625009
H        0.98998422       6.76014716       9.25463903
H        0.21441752       5.26173062       2.79761096
