80
Dimer: struct; Energy: -4906.06228 eV
C       -1.29972200       1.48833600      -0.03228100
C       -0.45010500       2.63965400       0.01843500
C        0.99654200       2.45238200       0.05441800
C       -0.76903400       0.15867800      -0.04877100
C        0.67752200      -0.02870400      -0.01297900
C        1.52709100       1.12265000       0.03785500
C        2.93347700       0.94084900       0.07277000
C        3.48023700      -0.37253000       0.05696900
C        3.79427800       2.07240500       0.12351100
C        5.26507800       1.88272800       0.16006300
C        1.24802600      -1.29258500      -0.02698300
C        2.64560500      -1.46904700       0.00777700
C        1.86805800       3.52983300       0.10418700
C        3.26457400       3.34539700       0.13880400
C        4.95087500      -0.56291500       0.09346700
N        5.75909100       0.57580800       0.14293500
O        6.06925500       2.83065500       0.20492200
O        5.48910000      -1.68427500       0.08194900
C       -1.02041300       3.90352800       0.03216900
C       -2.41794600       4.08003500      -0.00262400
C       -2.70602800       1.67000700      -0.06716000
C       -3.25245200       2.98347100      -0.05156500
C       -3.56691500       0.53850500      -0.11766500
C       -3.03687800      -0.73433100      -0.13279200
C       -1.64041100      -0.91883000      -0.09829200
C       -4.72314700       3.17392200      -0.08803700
C       -5.03773600       0.72818300      -0.15412500
N       -5.53143900       2.03522700      -0.13722100
O       -5.26133100       4.29529300      -0.07673500
O       -5.84203300      -0.21964700      -0.19870900
H        0.62972700      -2.20233100      -0.06573200
H        3.07286500      -2.48716200      -0.00439800
H        1.49989900       4.56697900       0.11841200
H        3.93550500       4.22152900       0.17822500
H        6.75033500       0.44779700       0.16755800
H       -0.40199700       4.81321100       0.07071000
H       -2.84532000       5.09816700       0.00933800
H       -3.70773700      -1.61056600      -0.17200800
H       -1.27202900      -1.95588300      -0.11238600
H       -6.52266300       2.16338500      -0.16179200
C        2.92489505      11.20535320       1.26897629
C        4.05165226      10.32591611       1.18553232
C        5.39268260      10.89646313       1.11295937
C        3.07776535      12.62884123       1.28327919
C        4.41868378      13.19946935       1.21090056
C        5.54540119      12.31998482       1.12733958
C        6.84918161      12.87440358       1.05685061
C        7.02189142      14.28655150       1.06989435
C        7.98137662      12.01701255       0.97326201
C        9.34499203      12.59639036       0.89950271
C        4.62754156      14.57035992       1.22107830
C        5.92428802      15.11726205       1.15092966
C        6.52063435      10.09406056       1.03054149
C        7.81421213      10.64835429       0.96063504
C        8.38516155      14.86656731       0.99619963
N        9.46870668      13.98809078       0.91521087
O       10.37334729      11.90054346       0.82492982
O        8.60129649      16.09151622       1.00347514
C        3.84298878       8.95508475       1.17561934
C        2.54629965       8.40815165       1.24579935
C        1.62115559      10.65108125       1.33942832
C        1.44879786       9.23894180       1.32658085
C        0.48888577      11.50839744       1.42278280
C        0.65640823      12.87699553       1.43523363
C        1.94992512      13.43133654       1.36544600
C        0.08548994       8.65884710       1.40025050
C       -0.87475214      10.92901313       1.49645069
N       -0.99812872       9.53727659       1.48095713
O       -0.13059655       7.43389835       1.39318972
O       -1.90320444      11.62473466       1.57075100
H        3.78823045      15.27958110       1.28428519
H        6.06145901      16.21286355       1.16087686
H        6.44542563       8.99607587       1.01681170
H        8.69510613       9.98569737       0.89566373
H       10.38766596      14.37873357       0.86551364
H        4.68240133       8.24595549       1.11261784
H        2.40902945       7.31250272       1.23606794
H       -0.22444994      13.53977135       1.49999904
H        2.02536992      14.52929201       1.37903811
H       -1.91703058       9.14649771       1.53060054
