80
Dimer: struct; Energy: -4906.06228 eV
C       -1.29972200       1.48833600      -0.03228100
C       -0.45010500       2.63965400       0.01843500
C        0.99654200       2.45238200       0.05441800
C       -0.76903400       0.15867800      -0.04877100
C        0.67752200      -0.02870400      -0.01297900
C        1.52709100       1.12265000       0.03785500
C        2.93347700       0.94084900       0.07277000
C        3.48023700      -0.37253000       0.05696900
C        3.79427800       2.07240500       0.12351100
C        5.26507800       1.88272800       0.16006300
C        1.24802600      -1.29258500      -0.02698300
C        2.64560500      -1.46904700       0.00777700
C        1.86805800       3.52983300       0.10418700
C        3.26457400       3.34539700       0.13880400
C        4.95087500      -0.56291500       0.09346700
N        5.75909100       0.57580800       0.14293500
O        6.06925500       2.83065500       0.20492200
O        5.48910000      -1.68427500       0.08194900
C       -1.02041300       3.90352800       0.03216900
C       -2.41794600       4.08003500      -0.00262400
C       -2.70602800       1.67000700      -0.06716000
C       -3.25245200       2.98347100      -0.05156500
C       -3.56691500       0.53850500      -0.11766500
C       -3.03687800      -0.73433100      -0.13279200
C       -1.64041100      -0.91883000      -0.09829200
C       -4.72314700       3.17392200      -0.08803700
C       -5.03773600       0.72818300      -0.15412500
N       -5.53143900       2.03522700      -0.13722100
O       -5.26133100       4.29529300      -0.07673500
O       -5.84203300      -0.21964700      -0.19870900
H        0.62972700      -2.20233100      -0.06573200
H        3.07286500      -2.48716200      -0.00439800
H        1.49989900       4.56697900       0.11841200
H        3.93550500       4.22152900       0.17822500
H        6.75033500       0.44779700       0.16755800
H       -0.40199700       4.81321100       0.07071000
H       -2.84532000       5.09816700       0.00933800
H       -3.70773700      -1.61056600      -0.17200800
H       -1.27202900      -1.95588300      -0.11238600
H       -6.52266300       2.16338500      -0.16179200
C        5.81283021      11.52772920       4.89225184
C        5.62742808      10.72200584       6.06117879
C        5.72103508       9.27055994       5.94415029
C        6.08759409      10.94859010       3.61201953
C        6.18140124       9.49724493       3.49490944
C        5.99587378       8.69156195       4.66385003
C        6.08689772       7.28052565       4.55034469
C        6.35934167       6.68595177       3.28685082
C        5.90553610       6.46288970       5.70036705
C        6.00061631       4.98724106       5.58210080
C        6.44538871       8.88079727       2.28108531
C        6.53507642       7.47875528       2.17241829
C        5.55041572       8.44022121       7.04157654
C        5.64150807       7.03893981       6.92502386
C        6.45458265       5.21044114       3.16788778
N        6.26972381       4.44557596       4.32251270
O        5.85197834       4.21934443       6.54932367
O        6.69007293       4.63149972       2.09241661
C        5.36372057      11.33827817       7.27505031
C        5.27406089      12.74027855       7.38376942
C        5.72179804      12.93867804       5.00562725
C        5.44956514      13.53293586       6.26925574
C        5.90291269      13.75638408       3.85561496
C        6.16677379      13.17999577       2.63110144
C        6.25798846      11.77876953       2.51450343
C        5.35428368      15.00850390       6.38827664
C        5.80774041      15.23204679       3.97386601
N        5.53885337      15.77342460       5.23362878
O        5.11900677      15.58742109       7.46379621
O        5.95608355      16.00004613       3.00668742
H        6.59416561       9.46450246       1.35989771
H        6.74642974       7.01443723       1.19313487
H        5.33784672       8.84623379       8.04226801
H        5.50125283       6.40143611       7.81565689
H        6.33384389       3.45105815       4.24263339
H        5.21516670      10.75446955       8.19621596
H        5.06290652      13.20472682       8.36309880
H        6.30684952      13.81740837       1.74033691
H        6.47042809      11.37252852       1.51389336
H        5.47465888      16.76792429       5.31364538
