80
Dimer: struct; Energy: -4906.06228 eV
C       -1.29972200       1.48833600      -0.03228100
C       -0.45010500       2.63965400       0.01843500
C        0.99654200       2.45238200       0.05441800
C       -0.76903400       0.15867800      -0.04877100
C        0.67752200      -0.02870400      -0.01297900
C        1.52709100       1.12265000       0.03785500
C        2.93347700       0.94084900       0.07277000
C        3.48023700      -0.37253000       0.05696900
C        3.79427800       2.07240500       0.12351100
C        5.26507800       1.88272800       0.16006300
C        1.24802600      -1.29258500      -0.02698300
C        2.64560500      -1.46904700       0.00777700
C        1.86805800       3.52983300       0.10418700
C        3.26457400       3.34539700       0.13880400
C        4.95087500      -0.56291500       0.09346700
N        5.75909100       0.57580800       0.14293500
O        6.06925500       2.83065500       0.20492200
O        5.48910000      -1.68427500       0.08194900
C       -1.02041300       3.90352800       0.03216900
C       -2.41794600       4.08003500      -0.00262400
C       -2.70602800       1.67000700      -0.06716000
C       -3.25245200       2.98347100      -0.05156500
C       -3.56691500       0.53850500      -0.11766500
C       -3.03687800      -0.73433100      -0.13279200
C       -1.64041100      -0.91883000      -0.09829200
C       -4.72314700       3.17392200      -0.08803700
C       -5.03773600       0.72818300      -0.15412500
N       -5.53143900       2.03522700      -0.13722100
O       -5.26133100       4.29529300      -0.07673500
O       -5.84203300      -0.21964700      -0.19870900
H        0.62972700      -2.20233100      -0.06573200
H        3.07286500      -2.48716200      -0.00439800
H        1.49989900       4.56697900       0.11841200
H        3.93550500       4.22152900       0.17822500
H        6.75033500       0.44779700       0.16755800
H       -0.40199700       4.81321100       0.07071000
H       -2.84532000       5.09816700       0.00933800
H       -3.70773700      -1.61056600      -0.17200800
H       -1.27202900      -1.95588300      -0.11238600
H       -6.52266300       2.16338500      -0.16179200
C        2.30333606      11.55628068       6.85915648
C        1.67767333      10.41933335       7.46401282
C        1.43868625       9.22800554       6.65606707
C        2.70094396      11.55637710       5.48372926
C        2.46218832      10.36510633       4.67577690
C        1.83641398       9.22822652       5.28065572
C        1.60404461       8.06994070       4.49543558
C        1.99206225       8.05039089       3.12677905
C        0.98342007       6.93018961       5.07832889
C        0.74020965       5.71870562       4.25752362
C        2.82607997      10.30776846       3.33885456
C        2.59358133       9.15526844       2.56215498
C        0.83657747       8.09770658       7.18786312
C        0.60730828       6.94891799       6.40479714
C        1.74918905       6.83928241       2.30544871
N        1.13708898       5.74271943       2.91801168
O        0.20240903       4.69179001       4.70862606
O        2.06514361       6.76057914       1.10492983
C        1.31399336      10.47641438       8.80091071
C        1.54649703      11.62884742       9.57763710
C        2.53570466      12.71455401       7.64422029
C        2.14778035      12.73371226       9.01285383
C        3.15611061      13.85443777       7.06135201
C        3.53195117      13.83541563       5.73482965
C        3.30282089      12.68665451       4.95176043
C        2.39061665      13.94485579       9.83425962
C        3.39924073      15.06596958       7.88214424
N        3.00246190      15.04156739       9.22168279
O        2.07484735      14.02344931      11.03482427
O        3.93677800      16.09304507       7.43110906
H        3.30919997      11.16004131       2.83719832
H        2.89365252       9.13713810       1.49966448
H        0.51651836       8.05790158       8.24019052
H        0.12581318       6.06259091       6.85412606
H        0.97325261       4.92630075       2.36467999
H        0.83106380       9.62399392       9.30251346
H        1.24663556      11.64700287      10.64024610
H        4.01328306      14.72178234       5.28532866
H        3.62268444      12.72627327       3.89938192
H        3.16619364      15.85793326       9.77511924
