80
Dimer: struct; Energy: -4906.06228 eV
C       -1.29972200       1.48833600      -0.03228100
C       -0.45010500       2.63965400       0.01843500
C        0.99654200       2.45238200       0.05441800
C       -0.76903400       0.15867800      -0.04877100
C        0.67752200      -0.02870400      -0.01297900
C        1.52709100       1.12265000       0.03785500
C        2.93347700       0.94084900       0.07277000
C        3.48023700      -0.37253000       0.05696900
C        3.79427800       2.07240500       0.12351100
C        5.26507800       1.88272800       0.16006300
C        1.24802600      -1.29258500      -0.02698300
C        2.64560500      -1.46904700       0.00777700
C        1.86805800       3.52983300       0.10418700
C        3.26457400       3.34539700       0.13880400
C        4.95087500      -0.56291500       0.09346700
N        5.75909100       0.57580800       0.14293500
O        6.06925500       2.83065500       0.20492200
O        5.48910000      -1.68427500       0.08194900
C       -1.02041300       3.90352800       0.03216900
C       -2.41794600       4.08003500      -0.00262400
C       -2.70602800       1.67000700      -0.06716000
C       -3.25245200       2.98347100      -0.05156500
C       -3.56691500       0.53850500      -0.11766500
C       -3.03687800      -0.73433100      -0.13279200
C       -1.64041100      -0.91883000      -0.09829200
C       -4.72314700       3.17392200      -0.08803700
C       -5.03773600       0.72818300      -0.15412500
N       -5.53143900       2.03522700      -0.13722100
O       -5.26133100       4.29529300      -0.07673500
O       -5.84203300      -0.21964700      -0.19870900
H        0.62972700      -2.20233100      -0.06573200
H        3.07286500      -2.48716200      -0.00439800
H        1.49989900       4.56697900       0.11841200
H        3.93550500       4.22152900       0.17822500
H        6.75033500       0.44779700       0.16755800
H       -0.40199700       4.81321100       0.07071000
H       -2.84532000       5.09816700       0.00933800
H       -3.70773700      -1.61056600      -0.17200800
H       -1.27202900      -1.95588300      -0.11238600
H       -6.52266300       2.16338500      -0.16179200
C        4.23017755       5.98600167       3.03630968
C        5.38670881       5.27046556       3.48396782
C        5.49194652       4.90254860       4.89205705
C        3.17430040       6.35025961       3.93203937
C        3.27933531       5.98225645       5.34003748
C        4.43594661       5.26682120       5.78766491
C        4.53844503       4.90897939       7.15647299
C        3.49960308       5.26175985       8.06229522
C        5.67998025       4.19800059       7.62056186
C        5.78757765       3.82361390       9.05193304
C        2.28783635       6.30815801       6.25315527
C        2.39332170       5.95086414       7.61212108
C        6.58850466       4.20971854       5.38242884
C        6.68690823       3.85596957       6.74281494
C        3.60653999       4.88767516       9.49372102
N        4.74457502       4.18995002       9.90652385
O        6.75925677       3.20265752       9.51833570
O        2.73278613       5.16704183      10.33382549
C        6.37810396       4.94427349       2.57097729
C        6.27264897       5.30150552       1.21203348
C        4.12759903       6.34390173       1.66762321
C        5.16647113       5.99080065       0.76204358
C        2.98621019       7.05508645       1.20348770
C        1.97955375       7.39708368       2.08153111
C        2.07783801       7.04327786       3.44186631
C        5.05959363       6.36489870      -0.66944984
C        2.87865484       7.42955762      -0.22788391
N        3.92170781       7.06287798      -1.08227196
O        5.93325880       6.08533085      -1.50956511
O        1.90717209       8.05074630      -0.69436970
H        1.38371510       6.85721631       5.94896344
H        1.58864661       6.22327215       8.31749288
H        7.42061474       3.91167526       4.72654910
H        7.57159294       3.30413113       7.10629396
H        4.81693192       3.93769725      10.87124702
H        7.28209006       4.39502653       2.87525320
H        7.07721538       5.02894741       0.50650576
H        1.09489296       7.94911503       1.71819361
H        1.24590960       7.34132009       4.09795229
H        3.84950556       7.31510711      -2.04701054
