80
Dimer: struct; Energy: -4906.06228 eV
C       -1.29972200       1.48833600      -0.03228100
C       -0.45010500       2.63965400       0.01843500
C        0.99654200       2.45238200       0.05441800
C       -0.76903400       0.15867800      -0.04877100
C        0.67752200      -0.02870400      -0.01297900
C        1.52709100       1.12265000       0.03785500
C        2.93347700       0.94084900       0.07277000
C        3.48023700      -0.37253000       0.05696900
C        3.79427800       2.07240500       0.12351100
C        5.26507800       1.88272800       0.16006300
C        1.24802600      -1.29258500      -0.02698300
C        2.64560500      -1.46904700       0.00777700
C        1.86805800       3.52983300       0.10418700
C        3.26457400       3.34539700       0.13880400
C        4.95087500      -0.56291500       0.09346700
N        5.75909100       0.57580800       0.14293500
O        6.06925500       2.83065500       0.20492200
O        5.48910000      -1.68427500       0.08194900
C       -1.02041300       3.90352800       0.03216900
C       -2.41794600       4.08003500      -0.00262400
C       -2.70602800       1.67000700      -0.06716000
C       -3.25245200       2.98347100      -0.05156500
C       -3.56691500       0.53850500      -0.11766500
C       -3.03687800      -0.73433100      -0.13279200
C       -1.64041100      -0.91883000      -0.09829200
C       -4.72314700       3.17392200      -0.08803700
C       -5.03773600       0.72818300      -0.15412500
N       -5.53143900       2.03522700      -0.13722100
O       -5.26133100       4.29529300      -0.07673500
O       -5.84203300      -0.21964700      -0.19870900
H        0.62972700      -2.20233100      -0.06573200
H        3.07286500      -2.48716200      -0.00439800
H        1.49989900       4.56697900       0.11841200
H        3.93550500       4.22152900       0.17822500
H        6.75033500       0.44779700       0.16755800
H       -0.40199700       4.81321100       0.07071000
H       -2.84532000       5.09816700       0.00933800
H       -3.70773700      -1.61056600      -0.17200800
H       -1.27202900      -1.95588300      -0.11238600
H       -6.52266300       2.16338500      -0.16179200
C        2.57057357      10.71281977       3.33982349
C        1.22693355      10.95646882       2.90945048
C        0.59002853      12.22281632       3.25567170
C        3.30629553      11.67735319       4.10027109
C        2.66959436      12.94374198       4.44637568
C        1.32590784      13.18729088       4.01607568
C        0.70655649      14.41832088       4.35247020
C        1.42114261      15.38969932       5.10742129
C       -0.62799557      14.67895225       3.93412336
C       -1.27607064      15.96617541       4.28572158
C        3.33332416      13.91507207       5.18057369
C        2.71463542      15.13674140       5.51272193
C       -0.70871501      12.51372951       2.86637427
C       -1.32072804      13.73765558       3.20240544
C        0.77371165      16.67708254       5.45931940
N       -0.53797574      16.89152972       5.02822909
O       -2.43890170      16.25294886       3.94976999
O        1.34528986      17.56528978       6.11632268
C        0.56320727       9.98541065       2.17505904
C        1.18184993       8.76377521       1.84286655
C        3.18996778       9.48189284       3.00353913
C        2.47521701       8.51084255       2.24842143
C        4.52443523       9.22107648       3.42204291
C        5.21681026      10.16252588       4.15386897
C        4.60491520      11.38648118       4.48982742
C        3.12261817       7.22337602       1.89650209
C        5.17248592       7.93379944       3.07051823
N        4.43421729       7.00874350       2.32780471
O        2.55109144       6.33528320       1.23931793
O        6.33520297       7.64678071       3.40663191
H        4.36646242      13.76632163       5.52976069
H        3.26673663      15.89256728       6.09852819
H       -1.30732963      11.79907792       2.28126841
H       -2.35643287      13.94310754       2.87927280
H       -0.97460542      17.75912578       5.26527208
H       -0.46986652      10.13436450       1.82574798
H        0.62987654       8.00793083       1.25685541
H        6.25247786       9.95709378       4.47723833
H        5.20329167      12.10123172       5.07502834
H        4.87070506       6.14108688       2.09073164
