80
Dimer: struct; Energy: -4906.06228 eV
C       -1.29972200       1.48833600      -0.03228100
C       -0.45010500       2.63965400       0.01843500
C        0.99654200       2.45238200       0.05441800
C       -0.76903400       0.15867800      -0.04877100
C        0.67752200      -0.02870400      -0.01297900
C        1.52709100       1.12265000       0.03785500
C        2.93347700       0.94084900       0.07277000
C        3.48023700      -0.37253000       0.05696900
C        3.79427800       2.07240500       0.12351100
C        5.26507800       1.88272800       0.16006300
C        1.24802600      -1.29258500      -0.02698300
C        2.64560500      -1.46904700       0.00777700
C        1.86805800       3.52983300       0.10418700
C        3.26457400       3.34539700       0.13880400
C        4.95087500      -0.56291500       0.09346700
N        5.75909100       0.57580800       0.14293500
O        6.06925500       2.83065500       0.20492200
O        5.48910000      -1.68427500       0.08194900
C       -1.02041300       3.90352800       0.03216900
C       -2.41794600       4.08003500      -0.00262400
C       -2.70602800       1.67000700      -0.06716000
C       -3.25245200       2.98347100      -0.05156500
C       -3.56691500       0.53850500      -0.11766500
C       -3.03687800      -0.73433100      -0.13279200
C       -1.64041100      -0.91883000      -0.09829200
C       -4.72314700       3.17392200      -0.08803700
C       -5.03773600       0.72818300      -0.15412500
N       -5.53143900       2.03522700      -0.13722100
O       -5.26133100       4.29529300      -0.07673500
O       -5.84203300      -0.21964700      -0.19870900
H        0.62972700      -2.20233100      -0.06573200
H        3.07286500      -2.48716200      -0.00439800
H        1.49989900       4.56697900       0.11841200
H        3.93550500       4.22152900       0.17822500
H        6.75033500       0.44779700       0.16755800
H       -0.40199700       4.81321100       0.07071000
H       -2.84532000       5.09816700       0.00933800
H       -3.70773700      -1.61056600      -0.17200800
H       -1.27202900      -1.95588300      -0.11238600
H       -6.52266300       2.16338500      -0.16179200
C        8.02068352       8.22866382       1.37024459
C        9.14036407       7.85414231       0.56030422
C        9.49378486       6.44289848       0.44788654
C        7.23839259       7.25677572       2.07263087
C        7.59158618       5.84556374       1.96014817
C        8.71135106       5.47110811       1.15028571
C        9.05507765       4.09922822       1.04078760
C        8.28990103       3.11826435       1.73098700
C       10.16435741       3.70721230       0.24091642
C       10.52417012       2.27266307       0.12615850
C        6.87021100       4.86037065       2.61747498
C        7.21480081       3.49859220       2.50615808
C       10.56755788       6.02144141      -0.32172582
C       10.90606841       4.65778343      -0.42811882
C        8.64912632       1.68360828       1.61664616
N        9.74583623       1.34302191       0.82066967
O       11.48152693       1.86710506      -0.55668059
O        8.01993589       0.77973629       2.19492108
C        9.86162728       8.83913145      -0.09726183
C        9.51706333      10.20088090       0.01399408
C        7.67691312       9.60042517       1.47983555
C        8.44212804      10.58109225       0.78936595
C        6.56779248       9.99255710       2.27987174
C        5.82640308       9.04174359       2.94888217
C        6.16477969       7.67810042       2.84244549
C        8.08294759      12.01582687       0.90369681
C        6.20803161      11.42713271       2.39470398
N        6.98641178      12.35651400       1.69988952
O        8.71202311      12.91964945       0.32524075
O        5.25087803      11.83285654       3.07771811
H        6.00329314       5.10702062       3.24917915
H        6.62278699       2.73498431       3.04064861
H       11.19327648       6.73700181      -0.87658145
H       11.76645807       4.35013570      -1.04811254
H        9.98819819       0.37614433       0.74342850
H       10.72840717       8.59233536      -0.72910930
H       10.10891871      10.96458602      -0.52065168
H        4.96609245       9.34930179       3.56908459
H        5.53928081       6.96237498       3.39730684
H        6.74419307      13.32342933       1.77707807
