80
Dimer: struct; Energy: -4906.06228 eV
C       -1.29972200       1.48833600      -0.03228100
C       -0.45010500       2.63965400       0.01843500
C        0.99654200       2.45238200       0.05441800
C       -0.76903400       0.15867800      -0.04877100
C        0.67752200      -0.02870400      -0.01297900
C        1.52709100       1.12265000       0.03785500
C        2.93347700       0.94084900       0.07277000
C        3.48023700      -0.37253000       0.05696900
C        3.79427800       2.07240500       0.12351100
C        5.26507800       1.88272800       0.16006300
C        1.24802600      -1.29258500      -0.02698300
C        2.64560500      -1.46904700       0.00777700
C        1.86805800       3.52983300       0.10418700
C        3.26457400       3.34539700       0.13880400
C        4.95087500      -0.56291500       0.09346700
N        5.75909100       0.57580800       0.14293500
O        6.06925500       2.83065500       0.20492200
O        5.48910000      -1.68427500       0.08194900
C       -1.02041300       3.90352800       0.03216900
C       -2.41794600       4.08003500      -0.00262400
C       -2.70602800       1.67000700      -0.06716000
C       -3.25245200       2.98347100      -0.05156500
C       -3.56691500       0.53850500      -0.11766500
C       -3.03687800      -0.73433100      -0.13279200
C       -1.64041100      -0.91883000      -0.09829200
C       -4.72314700       3.17392200      -0.08803700
C       -5.03773600       0.72818300      -0.15412500
N       -5.53143900       2.03522700      -0.13722100
O       -5.26133100       4.29529300      -0.07673500
O       -5.84203300      -0.21964700      -0.19870900
H        0.62972700      -2.20233100      -0.06573200
H        3.07286500      -2.48716200      -0.00439800
H        1.49989900       4.56697900       0.11841200
H        3.93550500       4.22152900       0.17822500
H        6.75033500       0.44779700       0.16755800
H       -0.40199700       4.81321100       0.07071000
H       -2.84532000       5.09816700       0.00933800
H       -3.70773700      -1.61056600      -0.17200800
H       -1.27202900      -1.95588300      -0.11238600
H       -6.52266300       2.16338500      -0.16179200
C        3.13353718      10.49173366       6.12236214
C        2.37854929      10.20941747       4.93904259
C        2.09277022       8.82056229       4.59471030
C        3.61559636       9.44903848       6.97693675
C        3.32973802       8.06022997       6.63282446
C        2.57484387       7.77796557       5.44942712
C        2.29683742       6.42787680       5.11451674
C        2.76705798       5.37752348       5.95106387
C        1.54831168       6.12706872       3.94268240
C        1.25738503       4.71533341       3.59206698
C        3.77077331       7.00931344       7.42284244
C        3.49252349       5.66945741       7.08678141
C        1.36666683       8.48717487       3.46133285
C        1.09246407       7.14490499       3.13179330
C        2.47647544       3.96563736       5.60107237
N        1.73819217       3.71546416       4.44145975
O        0.60894294       4.38813724       2.58224319
O        2.85952406       3.00420778       6.29114046
C        1.93723871      11.26016960       4.14911712
C        2.21542645      12.60000507       4.48514727
C        3.41161402      11.84169290       6.45732602
C        2.94108724      12.89179060       5.62072013
C        4.16033318      12.14258788       7.62901531
C        4.61614908      11.12450722       8.43958496
C        4.34189374       9.78226169       8.11017464
C        3.23167532      14.30375472       5.97066508
C        4.45134145      13.55433724       7.97958546
N        3.97020157      14.55399198       7.13012255
O        2.84843095      15.26516448       5.28069573
O        5.09999796      13.88166702       8.98922057
H        4.35354316       7.18437615       8.33999307
H        3.85613335       4.85214312       7.73411650
H        0.97892321       9.25903460       2.77920188
H        0.51176590       6.90798033       2.22296656
H        1.54219973       2.76395171       4.20530555
H        1.35429427      11.08498653       3.23209281
H        1.85166397      13.41744198       3.83795475
H        5.19704675      11.36131120       9.34835294
H        4.72963811       9.01023227       8.79208940
H        4.16616017      15.50554569       7.36612887
