80
Dimer: struct; Energy: -4906.06228 eV
C       -1.29972200       1.48833600      -0.03228100
C       -0.45010500       2.63965400       0.01843500
C        0.99654200       2.45238200       0.05441800
C       -0.76903400       0.15867800      -0.04877100
C        0.67752200      -0.02870400      -0.01297900
C        1.52709100       1.12265000       0.03785500
C        2.93347700       0.94084900       0.07277000
C        3.48023700      -0.37253000       0.05696900
C        3.79427800       2.07240500       0.12351100
C        5.26507800       1.88272800       0.16006300
C        1.24802600      -1.29258500      -0.02698300
C        2.64560500      -1.46904700       0.00777700
C        1.86805800       3.52983300       0.10418700
C        3.26457400       3.34539700       0.13880400
C        4.95087500      -0.56291500       0.09346700
N        5.75909100       0.57580800       0.14293500
O        6.06925500       2.83065500       0.20492200
O        5.48910000      -1.68427500       0.08194900
C       -1.02041300       3.90352800       0.03216900
C       -2.41794600       4.08003500      -0.00262400
C       -2.70602800       1.67000700      -0.06716000
C       -3.25245200       2.98347100      -0.05156500
C       -3.56691500       0.53850500      -0.11766500
C       -3.03687800      -0.73433100      -0.13279200
C       -1.64041100      -0.91883000      -0.09829200
C       -4.72314700       3.17392200      -0.08803700
C       -5.03773600       0.72818300      -0.15412500
N       -5.53143900       2.03522700      -0.13722100
O       -5.26133100       4.29529300      -0.07673500
O       -5.84203300      -0.21964700      -0.19870900
H        0.62972700      -2.20233100      -0.06573200
H        3.07286500      -2.48716200      -0.00439800
H        1.49989900       4.56697900       0.11841200
H        3.93550500       4.22152900       0.17822500
H        6.75033500       0.44779700       0.16755800
H       -0.40199700       4.81321100       0.07071000
H       -2.84532000       5.09816700       0.00933800
H       -3.70773700      -1.61056600      -0.17200800
H       -1.27202900      -1.95588300      -0.11238600
H       -6.52266300       2.16338500      -0.16179200
C        5.30890113       9.53798600       4.34118238
C        4.51972357      10.17961195       3.33347746
C        4.57418693      11.63237209       3.20827829
C        6.14990947      10.28242780       5.22910324
C        6.20459252      11.73509699       5.10388612
C        5.41530206      12.37668249       4.09623726
C        5.46813720      13.78896022       3.97428519
C        6.29790713      14.54644694       4.84712898
C        4.69116757      14.44490858       2.97928673
C        4.74610809      15.92179749       2.85143236
C        7.00105047      12.50760637       5.93572150
C        7.05084700      13.91033182       5.81140024
C        3.83194397      12.30792385       2.25139639
C        3.88692447      13.71095044       2.13322094
C        6.35334158      16.02329191       4.71980802
N        5.57413749      16.62637557       3.72911062
O        4.09132541      16.55291618       2.00277023
O        7.05848312      16.74018396       5.45200218
C        3.72347408       9.40726670       2.50143967
C        3.67367345       8.00457509       2.62569715
C        5.25611841       8.12581264       4.46323912
C        4.42644568       7.36861839       3.59013540
C        6.03287339       7.46979623       5.45836129
C        6.83688097       8.20407184       6.30434632
C        6.89199311       9.60704858       6.18615522
C        4.37095077       5.89170915       3.71743413
C        5.97786158       5.99289648       5.58627653
N        5.14991927       5.28857683       4.70830284
O        3.66596839       5.17483215       2.98508865
O        6.63237306       5.36167330       6.43506103
H        7.62228724      12.05271281       6.72221348
H        7.69393165      14.50088243       6.48738072
H        3.17374882      11.77224323       1.55051077
H        3.28512421      14.22319326       1.36201834
H        5.61128615      17.62175236       3.64307107
H        3.10243521       9.86226322       1.71484205
H        3.03074572       7.41388701       1.94959366
H        7.43858598       7.69193914       7.07574029
H        7.55002244      10.14294587       6.88700780
H        5.11263684       4.29320019       4.79425982
