80
Dimer: struct; Energy: -4906.06228 eV
C       -1.29972200       1.48833600      -0.03228100
C       -0.45010500       2.63965400       0.01843500
C        0.99654200       2.45238200       0.05441800
C       -0.76903400       0.15867800      -0.04877100
C        0.67752200      -0.02870400      -0.01297900
C        1.52709100       1.12265000       0.03785500
C        2.93347700       0.94084900       0.07277000
C        3.48023700      -0.37253000       0.05696900
C        3.79427800       2.07240500       0.12351100
C        5.26507800       1.88272800       0.16006300
C        1.24802600      -1.29258500      -0.02698300
C        2.64560500      -1.46904700       0.00777700
C        1.86805800       3.52983300       0.10418700
C        3.26457400       3.34539700       0.13880400
C        4.95087500      -0.56291500       0.09346700
N        5.75909100       0.57580800       0.14293500
O        6.06925500       2.83065500       0.20492200
O        5.48910000      -1.68427500       0.08194900
C       -1.02041300       3.90352800       0.03216900
C       -2.41794600       4.08003500      -0.00262400
C       -2.70602800       1.67000700      -0.06716000
C       -3.25245200       2.98347100      -0.05156500
C       -3.56691500       0.53850500      -0.11766500
C       -3.03687800      -0.73433100      -0.13279200
C       -1.64041100      -0.91883000      -0.09829200
C       -4.72314700       3.17392200      -0.08803700
C       -5.03773600       0.72818300      -0.15412500
N       -5.53143900       2.03522700      -0.13722100
O       -5.26133100       4.29529300      -0.07673500
O       -5.84203300      -0.21964700      -0.19870900
H        0.62972700      -2.20233100      -0.06573200
H        3.07286500      -2.48716200      -0.00439800
H        1.49989900       4.56697900       0.11841200
H        3.93550500       4.22152900       0.17822500
H        6.75033500       0.44779700       0.16755800
H       -0.40199700       4.81321100       0.07071000
H       -2.84532000       5.09816700       0.00933800
H       -3.70773700      -1.61056600      -0.17200800
H       -1.27202900      -1.95588300      -0.11238600
H       -6.52266300       2.16338500      -0.16179200
C       14.42280506       2.64674195       5.43006419
C       13.61209906       1.94687105       6.38026986
C       12.18970185       1.77152126       6.10605870
C       13.87637614       3.17904460       4.21846963
C       12.45410749       3.00360635       3.94407817
C       11.64342284       2.30382733       4.89437671
C       10.26063302       2.13317359       4.62799002
C        9.69879214       2.65472031       3.42945575
C        9.43853295       1.44076298       5.56002598
C        7.99241260       1.26210290       5.28184880
C       11.86995479       3.49737395       2.78734774
C       10.49591414       3.32577157       2.52631308
C       11.35603578       1.10275790       6.98961640
C        9.98286523       0.93518532       6.72167241
C        8.25282414       2.47639706       3.15065107
N        7.48242872       1.79021252       4.09298431
O        7.22225132       0.66692800       6.05637900
O        7.70310526       2.90864662       2.12194483
C       14.19612084       1.45283829       7.53684563
C       15.57012513       1.62438112       7.79789931
C       15.80550566       2.81747373       5.69634819
C       16.36706719       2.29564174       6.89482643
C       16.62763822       3.51007491       4.76448145
C       16.08294828       4.01564735       3.60302163
C       14.70985002       3.84801704       3.33497041
C       17.81308657       2.47396618       7.17370620
C       18.07375854       3.68881659       5.04270604
N       18.58349338       3.16039262       6.23154199
O       18.36281396       2.04152017       8.20231347
O       18.84397780       4.28420083       4.26840441
H       12.45856531       4.04058543       2.03243592
H       10.05703442       3.72942598       1.59695567
H       11.73733728       0.67927438       7.93125651
H        9.34198269       0.39826993       7.44299144
H        6.50781561       1.66988327       3.90534655
H       13.60744114       0.90945796       8.29159125
H       16.00916388       1.22056178       8.72717823
H       16.72371236       4.55277196       2.88170616
H       14.32830429       4.27151947       2.39345492
H       19.55807904       3.28068921       6.41933106
