80
Dimer: struct; Energy: -4906.06228 eV
C       -1.29972200       1.48833600      -0.03228100
C       -0.45010500       2.63965400       0.01843500
C        0.99654200       2.45238200       0.05441800
C       -0.76903400       0.15867800      -0.04877100
C        0.67752200      -0.02870400      -0.01297900
C        1.52709100       1.12265000       0.03785500
C        2.93347700       0.94084900       0.07277000
C        3.48023700      -0.37253000       0.05696900
C        3.79427800       2.07240500       0.12351100
C        5.26507800       1.88272800       0.16006300
C        1.24802600      -1.29258500      -0.02698300
C        2.64560500      -1.46904700       0.00777700
C        1.86805800       3.52983300       0.10418700
C        3.26457400       3.34539700       0.13880400
C        4.95087500      -0.56291500       0.09346700
N        5.75909100       0.57580800       0.14293500
O        6.06925500       2.83065500       0.20492200
O        5.48910000      -1.68427500       0.08194900
C       -1.02041300       3.90352800       0.03216900
C       -2.41794600       4.08003500      -0.00262400
C       -2.70602800       1.67000700      -0.06716000
C       -3.25245200       2.98347100      -0.05156500
C       -3.56691500       0.53850500      -0.11766500
C       -3.03687800      -0.73433100      -0.13279200
C       -1.64041100      -0.91883000      -0.09829200
C       -4.72314700       3.17392200      -0.08803700
C       -5.03773600       0.72818300      -0.15412500
N       -5.53143900       2.03522700      -0.13722100
O       -5.26133100       4.29529300      -0.07673500
O       -5.84203300      -0.21964700      -0.19870900
H        0.62972700      -2.20233100      -0.06573200
H        3.07286500      -2.48716200      -0.00439800
H        1.49989900       4.56697900       0.11841200
H        3.93550500       4.22152900       0.17822500
H        6.75033500       0.44779700       0.16755800
H       -0.40199700       4.81321100       0.07071000
H       -2.84532000       5.09816700       0.00933800
H       -3.70773700      -1.61056600      -0.17200800
H       -1.27202900      -1.95588300      -0.11238600
H       -6.52266300       2.16338500      -0.16179200
C        6.29342744       9.48632648       0.60345905
C        6.31087785      10.44942103       1.66275065
C        6.24609718       9.98502485       3.04452225
C        6.21429691       8.08046165       0.86263950
C        6.14970040       7.61596267       2.24429985
C        6.16703606       8.57910990       3.30355171
C        6.10414215       8.12788705       4.64691858
C        6.02524078       6.73484205       4.92505658
C        6.12010999       9.06945900       5.71329529
C        6.05432808       8.59801311       7.11827840
C        6.07207545       6.26680384       2.55544441
C        6.00979501       5.82251996       3.89122401
C        6.25926771      10.87150354       4.11077730
C        6.19660444      10.41961811       5.44394825
C        5.95946684       6.26273166       6.32974169
N        5.97777879       7.22153850       7.34596232
O        6.06442426       9.37065932       8.09305759
O        5.88933024       5.05948691       6.63723151
C        6.38876950      11.79851613       1.35179629
C        6.45108538      12.24283276       0.01607056
C        6.35627577       9.93740893      -0.73985482
C        6.43538461      11.33045713      -1.01764714
C        6.34007709       8.99592279      -1.80630473
C        6.26342379       7.64586232      -1.53660017
C        6.20087356       7.19391688      -0.20348990
C        6.50113770      11.80264504      -2.42237512
C        6.40576751       9.46738006      -3.21130803
N        6.48254515      10.84389988      -3.43866414
O        6.57149008      13.00587776      -2.72982305
O        6.39540487       8.69487104      -4.18618522
H        6.05636769       5.49547627       1.77043488
H        5.94851966       4.74198360       4.11018518
H        6.31911624      11.95920744       3.95350811
H        6.20878466      11.14778991       6.27396462
H        5.93344428       6.90363280       8.29281405
H        6.40467921      12.56974493       2.13690771
H        6.51257566      13.32339356      -0.20299952
H        6.25103130       6.91758965      -2.36656572
H        6.14089810       6.10626917      -0.04598350
H        6.52683747      11.16194901      -4.38546727
