80
Dimer: struct; Energy: -4906.06228 eV
C       -1.29972200       1.48833600      -0.03228100
C       -0.45010500       2.63965400       0.01843500
C        0.99654200       2.45238200       0.05441800
C       -0.76903400       0.15867800      -0.04877100
C        0.67752200      -0.02870400      -0.01297900
C        1.52709100       1.12265000       0.03785500
C        2.93347700       0.94084900       0.07277000
C        3.48023700      -0.37253000       0.05696900
C        3.79427800       2.07240500       0.12351100
C        5.26507800       1.88272800       0.16006300
C        1.24802600      -1.29258500      -0.02698300
C        2.64560500      -1.46904700       0.00777700
C        1.86805800       3.52983300       0.10418700
C        3.26457400       3.34539700       0.13880400
C        4.95087500      -0.56291500       0.09346700
N        5.75909100       0.57580800       0.14293500
O        6.06925500       2.83065500       0.20492200
O        5.48910000      -1.68427500       0.08194900
C       -1.02041300       3.90352800       0.03216900
C       -2.41794600       4.08003500      -0.00262400
C       -2.70602800       1.67000700      -0.06716000
C       -3.25245200       2.98347100      -0.05156500
C       -3.56691500       0.53850500      -0.11766500
C       -3.03687800      -0.73433100      -0.13279200
C       -1.64041100      -0.91883000      -0.09829200
C       -4.72314700       3.17392200      -0.08803700
C       -5.03773600       0.72818300      -0.15412500
N       -5.53143900       2.03522700      -0.13722100
O       -5.26133100       4.29529300      -0.07673500
O       -5.84203300      -0.21964700      -0.19870900
H        0.62972700      -2.20233100      -0.06573200
H        3.07286500      -2.48716200      -0.00439800
H        1.49989900       4.56697900       0.11841200
H        3.93550500       4.22152900       0.17822500
H        6.75033500       0.44779700       0.16755800
H       -0.40199700       4.81321100       0.07071000
H       -2.84532000       5.09816700       0.00933800
H       -3.70773700      -1.61056600      -0.17200800
H       -1.27202900      -1.95588300      -0.11238600
H       -6.52266300       2.16338500      -0.16179200
C        6.86008386       2.95354172       5.83449457
C        7.33917743       3.56033863       7.03957596
C        8.48204817       2.96749120       7.72625749
C        7.47146666       1.78141011       5.28475769
C        8.61439580       1.18861274       5.97121351
C        9.09337568       1.79538496       7.17635805
C       10.20444389       1.21927402       7.84405249
C       10.82581234       0.05453648       7.31353550
C       10.69505647       1.80752172       9.04290024
C       11.85692776       1.20535010       9.74147772
C        9.24653089       0.05396365       5.48537117
C       10.35002259      -0.51533953       6.15153490
C        8.98915671       3.51143438       8.89667814
C       10.09299984       2.93638364       9.55722253
C       11.98768645      -0.54810212       8.01155410
N       12.43668542       0.06195272       9.18568496
O       12.33188939       1.67221795      10.79206063
O       12.57322252      -1.56480407       7.59835715
C        6.70735990       4.69507677       7.52536735
C        5.60391803       5.26441963       6.85923786
C        5.74907494       3.52950850       5.16678287
C        5.12808304       4.69432838       5.69741812
C        5.25824533       2.94119459       3.96805563
C        5.86044270       1.81226053       3.45410451
C        6.96432631       1.23724183       4.11451701
C        3.96613932       5.29702002       4.99942445
C        4.09630207       3.54332125       3.26951942
N        3.51690592       4.68684887       3.82543047
O        3.38076385       6.31384027       5.41252830
O        3.62106726       3.07640836       2.21908744
H        8.90891875      -0.44196693       4.56260151
H       10.83434592      -1.41928315       5.74217646
H        8.54748750       4.41138554       9.35102541
H       10.47627925       3.39045831      10.48793343
H       13.21975865      -0.34401129       9.65637310
H        7.04519788       5.19104164       8.44804350
H        5.11963067       6.16853038       7.26842475
H        5.47711096       1.35796943       2.52348437
H        7.40607943       0.33722232       3.66042238
H        2.73379686       5.09289084       3.35487405
