80
Dimer: struct; Energy: -4906.06228 eV
C       -1.29972200       1.48833600      -0.03228100
C       -0.45010500       2.63965400       0.01843500
C        0.99654200       2.45238200       0.05441800
C       -0.76903400       0.15867800      -0.04877100
C        0.67752200      -0.02870400      -0.01297900
C        1.52709100       1.12265000       0.03785500
C        2.93347700       0.94084900       0.07277000
C        3.48023700      -0.37253000       0.05696900
C        3.79427800       2.07240500       0.12351100
C        5.26507800       1.88272800       0.16006300
C        1.24802600      -1.29258500      -0.02698300
C        2.64560500      -1.46904700       0.00777700
C        1.86805800       3.52983300       0.10418700
C        3.26457400       3.34539700       0.13880400
C        4.95087500      -0.56291500       0.09346700
N        5.75909100       0.57580800       0.14293500
O        6.06925500       2.83065500       0.20492200
O        5.48910000      -1.68427500       0.08194900
C       -1.02041300       3.90352800       0.03216900
C       -2.41794600       4.08003500      -0.00262400
C       -2.70602800       1.67000700      -0.06716000
C       -3.25245200       2.98347100      -0.05156500
C       -3.56691500       0.53850500      -0.11766500
C       -3.03687800      -0.73433100      -0.13279200
C       -1.64041100      -0.91883000      -0.09829200
C       -4.72314700       3.17392200      -0.08803700
C       -5.03773600       0.72818300      -0.15412500
N       -5.53143900       2.03522700      -0.13722100
O       -5.26133100       4.29529300      -0.07673500
O       -5.84203300      -0.21964700      -0.19870900
H        0.62972700      -2.20233100      -0.06573200
H        3.07286500      -2.48716200      -0.00439800
H        1.49989900       4.56697900       0.11841200
H        3.93550500       4.22152900       0.17822500
H        6.75033500       0.44779700       0.16755800
H       -0.40199700       4.81321100       0.07071000
H       -2.84532000       5.09816700       0.00933800
H       -3.70773700      -1.61056600      -0.17200800
H       -1.27202900      -1.95588300      -0.11238600
H       -6.52266300       2.16338500      -0.16179200
C        5.03152949       6.50559380       3.85110365
C        4.12487414       5.41220695       4.03120241
C        4.58871816       4.05488621       3.76346699
C        6.38047158       6.30381845       3.41574863
C        6.84445796       4.94660154       3.14817389
C        5.93772260       3.85325920       3.32817704
C        6.38843791       2.53364864       3.06803109
C        7.72541452       2.31247401       2.63474607
C        5.50243399       1.43407930       3.24099441
C        5.97336278       0.05392478       2.96902815
C        8.13991170       4.69080053       2.72458026
C        8.58388871       3.37846511       2.46721994
C        3.75543140       2.95764477       3.92034960
C        4.20662747       1.64821585       3.66094660
C        8.19698301       0.93264091       2.36264602
N        7.29377404      -0.11767344       2.54541245
O        5.24771104      -0.94766774       3.10139335
O        9.35275025       0.67463689       1.98198465
C        2.82955151       5.66780471       4.45502595
C        2.38555259       6.98008307       4.71242493
C        4.58094025       7.82515942       4.11116785
C        3.24401872       8.04597673       4.54463135
C        5.46680293       8.92481234       3.93800686
C        6.76248259       8.71032494       3.51790105
C        7.21376320       7.40095205       3.25859690
C        2.77236907       9.42585097       4.81673291
C        4.99584028      10.30499202       4.20988871
N        3.67544810      10.47624797       4.63371449
O        1.61666720       9.68380081       5.19759739
O        5.72129172      11.30669308       4.07730549
H        8.86696858       5.50337538       2.57443592
H        9.62098540       3.20370079       2.13084906
H        2.71235649       3.07068839       4.25296213
H        3.52150221       0.79255285       3.79419035
H        7.61132490      -1.04778550       2.36208002
H        2.10264198       4.85511986       4.60533495
H        1.34848248       7.15494233       5.04901701
H        7.44765476       9.56595362       3.38442397
H        8.25675764       7.28767728       2.92585935
H        3.35774892      11.40630875       4.81703768
