80
Dimer: struct; Energy: -4906.06228 eV
C       -1.29972200       1.48833600      -0.03228100
C       -0.45010500       2.63965400       0.01843500
C        0.99654200       2.45238200       0.05441800
C       -0.76903400       0.15867800      -0.04877100
C        0.67752200      -0.02870400      -0.01297900
C        1.52709100       1.12265000       0.03785500
C        2.93347700       0.94084900       0.07277000
C        3.48023700      -0.37253000       0.05696900
C        3.79427800       2.07240500       0.12351100
C        5.26507800       1.88272800       0.16006300
C        1.24802600      -1.29258500      -0.02698300
C        2.64560500      -1.46904700       0.00777700
C        1.86805800       3.52983300       0.10418700
C        3.26457400       3.34539700       0.13880400
C        4.95087500      -0.56291500       0.09346700
N        5.75909100       0.57580800       0.14293500
O        6.06925500       2.83065500       0.20492200
O        5.48910000      -1.68427500       0.08194900
C       -1.02041300       3.90352800       0.03216900
C       -2.41794600       4.08003500      -0.00262400
C       -2.70602800       1.67000700      -0.06716000
C       -3.25245200       2.98347100      -0.05156500
C       -3.56691500       0.53850500      -0.11766500
C       -3.03687800      -0.73433100      -0.13279200
C       -1.64041100      -0.91883000      -0.09829200
C       -4.72314700       3.17392200      -0.08803700
C       -5.03773600       0.72818300      -0.15412500
N       -5.53143900       2.03522700      -0.13722100
O       -5.26133100       4.29529300      -0.07673500
O       -5.84203300      -0.21964700      -0.19870900
H        0.62972700      -2.20233100      -0.06573200
H        3.07286500      -2.48716200      -0.00439800
H        1.49989900       4.56697900       0.11841200
H        3.93550500       4.22152900       0.17822500
H        6.75033500       0.44779700       0.16755800
H       -0.40199700       4.81321100       0.07071000
H       -2.84532000       5.09816700       0.00933800
H       -3.70773700      -1.61056600      -0.17200800
H       -1.27202900      -1.95588300      -0.11238600
H       -6.52266300       2.16338500      -0.16179200
C        1.77146207       9.35155001       2.49638353
C        2.03356098       7.98619497       2.83852983
C        2.30931596       7.64419237       4.22998465
C        1.77238658      10.39025553       3.48176774
C        2.04793179      10.04836523       4.87320700
C        2.31014042       8.68300784       5.21527927
C        2.57817013       8.35027568       6.56792173
C        2.58347698       9.36821471       7.56186968
C        2.84112015       6.99920573       6.92769843
C        3.12148852       6.65082115       8.34211980
C        2.06191266      11.01215105       5.87019624
C        2.32856316      10.67762031       7.21279106
C        2.57012061       6.33926080       4.61992348
C        2.83599687       6.01247897       5.96454066
C        2.86372427       9.02053763       8.97641441
N        3.11670536       7.68157028       9.28547310
O        3.35848804       5.48944112       8.71935478
O        2.88258005       9.86423521       9.89024476
C        2.01934824       7.02231380       1.84176084
C        1.75267580       7.35678252       0.49919604
C        1.50347431       9.68437801       1.14385792
C        1.49802798       8.66621560       0.15021526
C        1.24074446      11.03545632       0.78394907
C        1.24609750      12.02193834       1.74733066
C        1.51184668      11.69521883       3.09194285
C        1.21780009       9.01385507      -1.26441002
C        0.96046296      11.38385822      -0.63050485
N        0.96508663      10.35285684      -1.57358873
O        1.19873966       8.17010743      -2.17817656
O        0.72371848      12.54522355      -1.00792469
H        1.86531297      12.07212456       5.64830064
H        2.33334241      11.46549468       7.98641152
H        2.57868045       5.51277507       3.89310624
H        3.04049272       4.96480539       6.24715563
H        3.30563827       7.44694078      10.23878896
H        2.21576016       5.96233240       2.06381645
H        1.74766831       6.56890855      -0.27450541
H        1.04180990      13.06970531       1.46479138
H        1.50345956      12.52155359       3.81891147
H        0.77621660      10.58734909      -2.52694843
