80
Dimer: struct; Energy: -4906.06228 eV
C       -1.29972200       1.48833600      -0.03228100
C       -0.45010500       2.63965400       0.01843500
C        0.99654200       2.45238200       0.05441800
C       -0.76903400       0.15867800      -0.04877100
C        0.67752200      -0.02870400      -0.01297900
C        1.52709100       1.12265000       0.03785500
C        2.93347700       0.94084900       0.07277000
C        3.48023700      -0.37253000       0.05696900
C        3.79427800       2.07240500       0.12351100
C        5.26507800       1.88272800       0.16006300
C        1.24802600      -1.29258500      -0.02698300
C        2.64560500      -1.46904700       0.00777700
C        1.86805800       3.52983300       0.10418700
C        3.26457400       3.34539700       0.13880400
C        4.95087500      -0.56291500       0.09346700
N        5.75909100       0.57580800       0.14293500
O        6.06925500       2.83065500       0.20492200
O        5.48910000      -1.68427500       0.08194900
C       -1.02041300       3.90352800       0.03216900
C       -2.41794600       4.08003500      -0.00262400
C       -2.70602800       1.67000700      -0.06716000
C       -3.25245200       2.98347100      -0.05156500
C       -3.56691500       0.53850500      -0.11766500
C       -3.03687800      -0.73433100      -0.13279200
C       -1.64041100      -0.91883000      -0.09829200
C       -4.72314700       3.17392200      -0.08803700
C       -5.03773600       0.72818300      -0.15412500
N       -5.53143900       2.03522700      -0.13722100
O       -5.26133100       4.29529300      -0.07673500
O       -5.84203300      -0.21964700      -0.19870900
H        0.62972700      -2.20233100      -0.06573200
H        3.07286500      -2.48716200      -0.00439800
H        1.49989900       4.56697900       0.11841200
H        3.93550500       4.22152900       0.17822500
H        6.75033500       0.44779700       0.16755800
H       -0.40199700       4.81321100       0.07071000
H       -2.84532000       5.09816700       0.00933800
H       -3.70773700      -1.61056600      -0.17200800
H       -1.27202900      -1.95588300      -0.11238600
H       -6.52266300       2.16338500      -0.16179200
C        3.20171574       9.72667181       3.90804055
C        2.17486565       8.86373881       3.40716149
C        1.78269448       8.96739100       2.00551562
C        3.85424431      10.68817561       3.07161423
C        3.46230763      10.79178733       1.66998390
C        2.43536701       9.92890757       1.16918543
C        2.05399850      10.02943715      -0.19340186
C        2.69067694      10.97855187      -1.04074027
C        1.03555607       9.18083607      -0.70975756
C        0.63641635       9.28565799      -2.13463156
C        4.05936870      11.70408090       0.81306813
C        3.67776063      11.80088127      -0.53992083
C        0.79464077       8.15816813       1.46530643
C        0.41839075       8.26088229       0.11129106
C        2.29206499      11.08387433      -2.46565092
N        1.28763166      10.23125963      -2.93095954
O       -0.24608674       8.57286625      -2.64492049
O        2.81048015      11.89255912      -3.25593042
C        1.57793670       7.95126345       4.26383054
C        1.95952539       7.85440565       5.61678006
C        3.58311179       9.62625998       5.27052797
C        2.94641656       8.67693122       6.11752511
C        4.60138091      10.47498059       5.78703092
C        5.21822079      11.39491378       4.96574473
C        4.84210946      11.49759960       3.61173361
C        3.34498831       8.57157900       7.54251179
C        5.00046122      10.37021974       7.21194550
N        4.34922666       9.42436406       8.00796245
O        2.82670719       7.76274118       8.33270717
O        5.88274800      11.08312610       7.72243319
H        4.85215567      12.38461998       1.15917262
H        4.17011512      12.53652961      -1.19997087
H        0.26944754       7.40718165       2.07490187
H       -0.37173318       7.60373807      -0.29265864
H        1.01874956      10.30203028      -3.89129892
H        0.78529824       7.27062884       3.91755361
H        1.46735070       7.11860824       6.27689418
H        6.00823748      12.05226784       5.36964661
H        5.36707762      12.24859401       3.00198064
H        4.61797455       9.35351707       8.96833139
