80
Dimer: struct; Energy: -4906.06228 eV
C       -1.29972200       1.48833600      -0.03228100
C       -0.45010500       2.63965400       0.01843500
C        0.99654200       2.45238200       0.05441800
C       -0.76903400       0.15867800      -0.04877100
C        0.67752200      -0.02870400      -0.01297900
C        1.52709100       1.12265000       0.03785500
C        2.93347700       0.94084900       0.07277000
C        3.48023700      -0.37253000       0.05696900
C        3.79427800       2.07240500       0.12351100
C        5.26507800       1.88272800       0.16006300
C        1.24802600      -1.29258500      -0.02698300
C        2.64560500      -1.46904700       0.00777700
C        1.86805800       3.52983300       0.10418700
C        3.26457400       3.34539700       0.13880400
C        4.95087500      -0.56291500       0.09346700
N        5.75909100       0.57580800       0.14293500
O        6.06925500       2.83065500       0.20492200
O        5.48910000      -1.68427500       0.08194900
C       -1.02041300       3.90352800       0.03216900
C       -2.41794600       4.08003500      -0.00262400
C       -2.70602800       1.67000700      -0.06716000
C       -3.25245200       2.98347100      -0.05156500
C       -3.56691500       0.53850500      -0.11766500
C       -3.03687800      -0.73433100      -0.13279200
C       -1.64041100      -0.91883000      -0.09829200
C       -4.72314700       3.17392200      -0.08803700
C       -5.03773600       0.72818300      -0.15412500
N       -5.53143900       2.03522700      -0.13722100
O       -5.26133100       4.29529300      -0.07673500
O       -5.84203300      -0.21964700      -0.19870900
H        0.62972700      -2.20233100      -0.06573200
H        3.07286500      -2.48716200      -0.00439800
H        1.49989900       4.56697900       0.11841200
H        3.93550500       4.22152900       0.17822500
H        6.75033500       0.44779700       0.16755800
H       -0.40199700       4.81321100       0.07071000
H       -2.84532000       5.09816700       0.00933800
H       -3.70773700      -1.61056600      -0.17200800
H       -1.27202900      -1.95588300      -0.11238600
H       -6.52266300       2.16338500      -0.16179200
C        5.76236711       7.89602726       1.10793849
C        6.55695009       6.76240940       0.74255822
C        6.93347955       5.79897769       1.77172197
C        5.32710486       8.11018422       2.45500034
C        5.70339714       7.14677645       3.48415871
C        6.49808197       6.01323547       3.11874325
C        6.86418841       5.07646421       4.11905216
C        6.44133616       5.27158321       5.46340521
C        7.65350588       3.94372927       3.77574255
C        8.03660850       2.96386342       4.82152520
C        5.31060380       7.30240351       4.80497653
C        5.67629771       6.36959036       5.79578516
C        7.70161614       4.68283754       1.47656930
C        8.06340816       3.75442014       2.47287226
C        6.82403723       4.29213722       6.50962705
N        7.59985414       3.19427373       6.12863607
O        8.72437363       1.95480426       4.58476093
O        6.48577683       4.40700622       7.70111858
C        6.94956857       6.60650805      -0.57818506
C        6.58387973       7.53925024      -1.56900666
C        5.39625842       8.83281722       0.10778527
C        5.81907161       8.63730963      -1.23646763
C        4.60713980       9.96570683       0.45104447
C        4.19754492      10.15477989       1.75402679
C        4.55919554       9.22637016       2.75032716
C        5.43640452       9.61678000      -2.28277029
C        4.22410968      10.94563300      -0.59473473
N        4.66081894      10.71482642      -1.90179470
O        5.77449804       9.50176936      -3.47428529
O        3.53658522      11.95487127      -0.35806756
H        4.69953995       8.15966584       5.12612321
H        5.34958044       6.51835767       6.83999855
H        8.05580783       4.48267665       0.45387722
H        8.67597884       2.87416667       2.20977399
H        7.85795866       2.53397111       6.83357598
H        7.56046264       5.74908610      -0.89925039
H        6.91038951       7.39045438      -2.61334164
H        3.58512514      11.03512866       2.01728619
H        4.20522160       9.42638800       3.77310679
H        4.40282847      11.37507200      -2.60682655
