80
Dimer: struct; Energy: -4906.06228 eV
C       -1.29972200       1.48833600      -0.03228100
C       -0.45010500       2.63965400       0.01843500
C        0.99654200       2.45238200       0.05441800
C       -0.76903400       0.15867800      -0.04877100
C        0.67752200      -0.02870400      -0.01297900
C        1.52709100       1.12265000       0.03785500
C        2.93347700       0.94084900       0.07277000
C        3.48023700      -0.37253000       0.05696900
C        3.79427800       2.07240500       0.12351100
C        5.26507800       1.88272800       0.16006300
C        1.24802600      -1.29258500      -0.02698300
C        2.64560500      -1.46904700       0.00777700
C        1.86805800       3.52983300       0.10418700
C        3.26457400       3.34539700       0.13880400
C        4.95087500      -0.56291500       0.09346700
N        5.75909100       0.57580800       0.14293500
O        6.06925500       2.83065500       0.20492200
O        5.48910000      -1.68427500       0.08194900
C       -1.02041300       3.90352800       0.03216900
C       -2.41794600       4.08003500      -0.00262400
C       -2.70602800       1.67000700      -0.06716000
C       -3.25245200       2.98347100      -0.05156500
C       -3.56691500       0.53850500      -0.11766500
C       -3.03687800      -0.73433100      -0.13279200
C       -1.64041100      -0.91883000      -0.09829200
C       -4.72314700       3.17392200      -0.08803700
C       -5.03773600       0.72818300      -0.15412500
N       -5.53143900       2.03522700      -0.13722100
O       -5.26133100       4.29529300      -0.07673500
O       -5.84203300      -0.21964700      -0.19870900
H        0.62972700      -2.20233100      -0.06573200
H        3.07286500      -2.48716200      -0.00439800
H        1.49989900       4.56697900       0.11841200
H        3.93550500       4.22152900       0.17822500
H        6.75033500       0.44779700       0.16755800
H       -0.40199700       4.81321100       0.07071000
H       -2.84532000       5.09816700       0.00933800
H       -3.70773700      -1.61056600      -0.17200800
H       -1.27202900      -1.95588300      -0.11238600
H       -6.52266300       2.16338500      -0.16179200
C        7.32031902       0.28724927       6.39903263
C        7.63893966      -0.60976448       7.46851921
C        7.05878161      -0.37594814       8.78681343
C        6.44823519       1.40701133       6.58743324
C        5.86790368       1.64081026       7.90556478
C        6.18665240       0.74382972       8.97504726
C        5.62271875       0.97088624      10.25669324
C        4.75367568       2.07811215      10.46399856
C        5.92741923       0.09079605      11.33213309
C        5.33791388       0.32789748      12.67259286
C        5.01679938       2.70874757       8.14680630
C        4.45856555       2.93091833       9.42140008
C        7.33162501      -1.21107619       9.85967660
C        6.76963512      -0.98238463      11.13142322
C        4.16382835       2.31576705      11.80413100
N        4.48982627       1.42689737      12.83174295
O        5.56550264      -0.40474529      13.65173355
O        3.39802254       3.26506360      12.04835342
C        8.48975828      -1.67783710       7.22738467
C        9.04797248      -1.90006171       5.95283499
C        7.88418702       0.06032410       5.11744170
C        8.75299143      -1.04707283       4.91041270
C        7.57973007       0.94049609       4.04199892
C        6.73760517       2.01365178       4.24310106
C        6.17550884       2.24232928       5.51475531
C        9.34291276      -1.28477064       3.57024922
C        8.16931580       0.70344376       2.70154513
N        9.01717949      -0.39577061       2.54265100
O       10.10853954      -2.23419390       3.32600802
O        7.94203503       1.43615268       1.72239029
H        4.74722561       3.42040507       7.35162927
H        3.78373756       3.78940369       9.58531337
H        7.99666319      -2.08191501       9.75585376
H        7.00408475      -1.66356218      11.96828654
H        4.09243103       1.58683405      13.73510061
H        8.75909500      -2.38955221       8.02259926
H        9.72268191      -2.75868334       5.78876036
H        6.50323936       2.69503113       3.40633806
H        5.51054142       3.11317186       5.61884370
H        9.41468267      -0.55580024       1.63935981
