80
Dimer: struct; Energy: -4906.06228 eV
C       -1.29972200       1.48833600      -0.03228100
C       -0.45010500       2.63965400       0.01843500
C        0.99654200       2.45238200       0.05441800
C       -0.76903400       0.15867800      -0.04877100
C        0.67752200      -0.02870400      -0.01297900
C        1.52709100       1.12265000       0.03785500
C        2.93347700       0.94084900       0.07277000
C        3.48023700      -0.37253000       0.05696900
C        3.79427800       2.07240500       0.12351100
C        5.26507800       1.88272800       0.16006300
C        1.24802600      -1.29258500      -0.02698300
C        2.64560500      -1.46904700       0.00777700
C        1.86805800       3.52983300       0.10418700
C        3.26457400       3.34539700       0.13880400
C        4.95087500      -0.56291500       0.09346700
N        5.75909100       0.57580800       0.14293500
O        6.06925500       2.83065500       0.20492200
O        5.48910000      -1.68427500       0.08194900
C       -1.02041300       3.90352800       0.03216900
C       -2.41794600       4.08003500      -0.00262400
C       -2.70602800       1.67000700      -0.06716000
C       -3.25245200       2.98347100      -0.05156500
C       -3.56691500       0.53850500      -0.11766500
C       -3.03687800      -0.73433100      -0.13279200
C       -1.64041100      -0.91883000      -0.09829200
C       -4.72314700       3.17392200      -0.08803700
C       -5.03773600       0.72818300      -0.15412500
N       -5.53143900       2.03522700      -0.13722100
O       -5.26133100       4.29529300      -0.07673500
O       -5.84203300      -0.21964700      -0.19870900
H        0.62972700      -2.20233100      -0.06573200
H        3.07286500      -2.48716200      -0.00439800
H        1.49989900       4.56697900       0.11841200
H        3.93550500       4.22152900       0.17822500
H        6.75033500       0.44779700       0.16755800
H       -0.40199700       4.81321100       0.07071000
H       -2.84532000       5.09816700       0.00933800
H       -3.70773700      -1.61056600      -0.17200800
H       -1.27202900      -1.95588300      -0.11238600
H       -6.52266300       2.16338500      -0.16179200
C        2.24473926       1.20096174       4.31952371
C        1.27009176       1.88192920       3.52183964
C        1.17850344       3.33599323       3.60222917
C        3.13182641       1.90733574       5.19359706
C        3.04046032       3.36133590       5.27392836
C        2.06571280       4.04224409       4.47630758
C        1.97653411       5.45580941       4.55423359
C        2.84929673       6.17582782       5.41679922
C        1.01442842       6.15051994       3.76956683
C        0.92081749       7.62876468       3.85077982
C        3.87335618       4.09801064       6.10257842
C        3.78169313       5.50214990       6.17717739
C        0.25420931       4.04870482       2.85347000
C        0.16848515       5.45288393       2.93349697
C        2.75625083       7.65401164       5.49846769
N        1.79719349       8.29581666       4.71065706
O        0.10170936       8.29275333       3.19088625
O        3.49015837       8.33926369       6.23268592
C        0.43735903       1.14546505       2.69298858
C        0.52900621      -0.25863288       2.61833241
C        2.33397496      -0.21250893       4.24170898
C        1.46124644      -0.93219451       3.37891835
C        3.29589206      -0.90732566       5.02651416
C        4.14156385      -0.20939122       5.86258010
C        4.05597176       1.19475483       5.94256804
C        1.55423528      -2.41044519       3.29722633
C        3.38944204      -2.38559669       4.94536826
N        2.51308826      -3.05234581       4.08522753
O        0.82046244      -3.09564553       2.56284184
O        4.20830883      -3.04973330       5.60540073
H        4.63523500       3.61231388       6.73112614
H        4.45772317       6.06367575       6.84570531
H       -0.44501094       3.54292589       2.17031999
H       -0.57715324       5.99515913       2.32582049
H        1.73423955       9.29210291       4.76550489
H       -0.32434829       1.63129827       2.06432732
H       -0.14687398      -0.82026131       1.94964425
H        4.88712511      -0.75159323       6.47047224
H        4.75500478       1.70073402       6.62573768
H        2.57589878      -4.04863528       4.03031539
