80
Dimer: struct; Energy: -4906.06228 eV
C       -1.29972200       1.48833600      -0.03228100
C       -0.45010500       2.63965400       0.01843500
C        0.99654200       2.45238200       0.05441800
C       -0.76903400       0.15867800      -0.04877100
C        0.67752200      -0.02870400      -0.01297900
C        1.52709100       1.12265000       0.03785500
C        2.93347700       0.94084900       0.07277000
C        3.48023700      -0.37253000       0.05696900
C        3.79427800       2.07240500       0.12351100
C        5.26507800       1.88272800       0.16006300
C        1.24802600      -1.29258500      -0.02698300
C        2.64560500      -1.46904700       0.00777700
C        1.86805800       3.52983300       0.10418700
C        3.26457400       3.34539700       0.13880400
C        4.95087500      -0.56291500       0.09346700
N        5.75909100       0.57580800       0.14293500
O        6.06925500       2.83065500       0.20492200
O        5.48910000      -1.68427500       0.08194900
C       -1.02041300       3.90352800       0.03216900
C       -2.41794600       4.08003500      -0.00262400
C       -2.70602800       1.67000700      -0.06716000
C       -3.25245200       2.98347100      -0.05156500
C       -3.56691500       0.53850500      -0.11766500
C       -3.03687800      -0.73433100      -0.13279200
C       -1.64041100      -0.91883000      -0.09829200
C       -4.72314700       3.17392200      -0.08803700
C       -5.03773600       0.72818300      -0.15412500
N       -5.53143900       2.03522700      -0.13722100
O       -5.26133100       4.29529300      -0.07673500
O       -5.84203300      -0.21964700      -0.19870900
H        0.62972700      -2.20233100      -0.06573200
H        3.07286500      -2.48716200      -0.00439800
H        1.49989900       4.56697900       0.11841200
H        3.93550500       4.22152900       0.17822500
H        6.75033500       0.44779700       0.16755800
H       -0.40199700       4.81321100       0.07071000
H       -2.84532000       5.09816700       0.00933800
H       -3.70773700      -1.61056600      -0.17200800
H       -1.27202900      -1.95588300      -0.11238600
H       -6.52266300       2.16338500      -0.16179200
C        1.73282404       5.22698143       9.13610666
C        1.76362342       4.42490120       7.95049585
C        2.01270584       5.06880171       6.66499859
C        1.93976548       6.64309707       9.09507234
C        2.18902552       7.28704740       7.80972618
C        2.21969781       6.48493300       6.62412958
C        2.46189558       7.11066169       5.37433117
C        2.67006179       8.51673333       5.31276863
C        2.49612469       6.33071907       4.18500789
C        2.74934739       6.98468857       2.87780927
C        2.39649249       8.65449096       7.70911956
C        2.63682316       9.27236623       6.46571879
C        2.05360879       4.34295798       5.48415330
C        2.29442694       4.96795979       4.24445525
C        2.92335555       9.17130867       4.00596792
N        2.94847168       8.36762729       2.86324500
O        2.79130638       6.35823021       1.80399926
O        3.11255465      10.39493886       3.88680455
C        1.55645827       3.05749272       8.05096449
C        1.31616548       2.43958574       9.29431243
C        1.49061491       4.60140498      10.38586916
C        1.28270778       3.19533503      10.44712278
C        1.45613473       5.38129934      11.57521766
C        1.65772162       6.74403998      11.51538282
C        1.89864953       7.36907035      10.27576958
C        1.02937332       2.54068278      11.75395010
C        1.20281787       4.72733387      12.88242125
N        1.00396273       3.34434961      12.89669034
O        0.84039281       1.31702795      11.87310499
O        1.16056025       5.35369767      13.95626751
H        2.38081254       9.30544354       8.59650211
H        2.79876031      10.36344012       6.41481085
H        1.89944950       3.25321701       5.47344113
H        2.32163130       4.36551082       3.31945532
H        3.11915402       8.80853534       1.98232196
H        1.57236830       2.40661033       7.16352666
H        1.15441448       1.34843230       9.34535332
H        1.63033697       7.34663475      12.44031908
H        2.05271594       8.45881213      10.28622308
H        0.83322311       2.90331659      13.77753713
