80
Dimer: struct; Energy: -4906.06228 eV
C       -1.29972200       1.48833600      -0.03228100
C       -0.45010500       2.63965400       0.01843500
C        0.99654200       2.45238200       0.05441800
C       -0.76903400       0.15867800      -0.04877100
C        0.67752200      -0.02870400      -0.01297900
C        1.52709100       1.12265000       0.03785500
C        2.93347700       0.94084900       0.07277000
C        3.48023700      -0.37253000       0.05696900
C        3.79427800       2.07240500       0.12351100
C        5.26507800       1.88272800       0.16006300
C        1.24802600      -1.29258500      -0.02698300
C        2.64560500      -1.46904700       0.00777700
C        1.86805800       3.52983300       0.10418700
C        3.26457400       3.34539700       0.13880400
C        4.95087500      -0.56291500       0.09346700
N        5.75909100       0.57580800       0.14293500
O        6.06925500       2.83065500       0.20492200
O        5.48910000      -1.68427500       0.08194900
C       -1.02041300       3.90352800       0.03216900
C       -2.41794600       4.08003500      -0.00262400
C       -2.70602800       1.67000700      -0.06716000
C       -3.25245200       2.98347100      -0.05156500
C       -3.56691500       0.53850500      -0.11766500
C       -3.03687800      -0.73433100      -0.13279200
C       -1.64041100      -0.91883000      -0.09829200
C       -4.72314700       3.17392200      -0.08803700
C       -5.03773600       0.72818300      -0.15412500
N       -5.53143900       2.03522700      -0.13722100
O       -5.26133100       4.29529300      -0.07673500
O       -5.84203300      -0.21964700      -0.19870900
H        0.62972700      -2.20233100      -0.06573200
H        3.07286500      -2.48716200      -0.00439800
H        1.49989900       4.56697900       0.11841200
H        3.93550500       4.22152900       0.17822500
H        6.75033500       0.44779700       0.16755800
H       -0.40199700       4.81321100       0.07071000
H       -2.84532000       5.09816700       0.00933800
H       -3.70773700      -1.61056600      -0.17200800
H       -1.27202900      -1.95588300      -0.11238600
H       -6.52266300       2.16338500      -0.16179200
C       11.01961983       1.43706408      -0.20547383
C       10.97107009       1.99971674      -1.52115586
C       10.11744300       3.15747680      -1.76623865
C       10.25390044       1.97911322       0.87607535
C        9.40042553       3.13692114       0.63116979
C        9.35182416       3.69946290      -0.68456281
C        8.52210258       4.82502048      -0.92304650
C        7.75359846       5.37830789       0.13876093
C        8.46024407       5.39822321      -2.22365565
C        7.59266126       6.57527458      -2.47348798
C        8.63680344       3.70433753       1.64012275
C        7.81381231       4.82247658       1.39923934
C       10.03033859       3.74415875      -3.01968784
C        9.20500641       4.86215810      -3.25287481
C        6.88587471       6.55531675      -0.11035813
N        6.85515402       7.08638633      -1.40239977
O        7.49565995       7.12091683      -3.58710544
O        6.19092836       7.08400829       0.77553233
C       11.73479372       1.43261750      -2.53008697
C       12.55780303       0.31453132      -2.28924944
C       11.84922308       0.31155999       0.03309781
C       12.61774135      -0.24134257      -1.02882898
C       11.91096633      -0.26185508       1.33361959
C       11.16596190       0.27436797       2.36255728
C       10.34072106       1.39240171       2.12947292
C       13.48549986      -1.41841782      -0.77976155
C       12.77849010      -1.43897756       1.58343282
N       13.51605354      -1.94971788       0.51220132
O       14.18059417      -1.94695015      -1.66561715
O       12.87538028      -1.98488586       2.69692262
H        8.64644707       3.30165021       2.66441902
H        7.21623580       5.25408549       2.22135463
H       10.60265458       3.35739430      -3.87659092
H        9.15469162       5.30946459      -4.26118777
H        6.27038888       7.87967948      -1.57060642
H       11.72522435       1.83552634      -3.55430365
H       13.15560843      -0.11704535      -3.11129243
H       11.21604344      -0.17299305       3.37089126
H        9.76822346       1.77926117       2.98619290
H       14.10082387      -2.74303717       0.68025304
