80
Dimer: struct; Energy: -4906.06228 eV
C       -1.29972200       1.48833600      -0.03228100
C       -0.45010500       2.63965400       0.01843500
C        0.99654200       2.45238200       0.05441800
C       -0.76903400       0.15867800      -0.04877100
C        0.67752200      -0.02870400      -0.01297900
C        1.52709100       1.12265000       0.03785500
C        2.93347700       0.94084900       0.07277000
C        3.48023700      -0.37253000       0.05696900
C        3.79427800       2.07240500       0.12351100
C        5.26507800       1.88272800       0.16006300
C        1.24802600      -1.29258500      -0.02698300
C        2.64560500      -1.46904700       0.00777700
C        1.86805800       3.52983300       0.10418700
C        3.26457400       3.34539700       0.13880400
C        4.95087500      -0.56291500       0.09346700
N        5.75909100       0.57580800       0.14293500
O        6.06925500       2.83065500       0.20492200
O        5.48910000      -1.68427500       0.08194900
C       -1.02041300       3.90352800       0.03216900
C       -2.41794600       4.08003500      -0.00262400
C       -2.70602800       1.67000700      -0.06716000
C       -3.25245200       2.98347100      -0.05156500
C       -3.56691500       0.53850500      -0.11766500
C       -3.03687800      -0.73433100      -0.13279200
C       -1.64041100      -0.91883000      -0.09829200
C       -4.72314700       3.17392200      -0.08803700
C       -5.03773600       0.72818300      -0.15412500
N       -5.53143900       2.03522700      -0.13722100
O       -5.26133100       4.29529300      -0.07673500
O       -5.84203300      -0.21964700      -0.19870900
H        0.62972700      -2.20233100      -0.06573200
H        3.07286500      -2.48716200      -0.00439800
H        1.49989900       4.56697900       0.11841200
H        3.93550500       4.22152900       0.17822500
H        6.75033500       0.44779700       0.16755800
H       -0.40199700       4.81321100       0.07071000
H       -2.84532000       5.09816700       0.00933800
H       -3.70773700      -1.61056600      -0.17200800
H       -1.27202900      -1.95588300      -0.11238600
H       -6.52266300       2.16338500      -0.16179200
C        9.55779758       2.33539403       4.02146081
C        9.81749339       3.27323633       5.07168184
C       10.97879902       4.15058090       4.96781239
C       10.40597017       2.23485266       2.87237997
C       11.56713740       3.11222324       2.76831810
C       11.82685235       4.04996863       3.81862726
C       12.95570995       4.90303070       3.71784101
C       13.81055613       4.81848030       2.58371147
C       13.23061689       5.84140413       4.75121097
C       14.41104206       6.73367045       4.64621912
C       12.42342569       3.05970351       1.67878694
C       13.54378778       3.90885378       1.58231535
C       11.27995861       5.07779178       5.95396686
C       12.40222557       5.92353136       5.85046152
C       14.99107658       5.71042572       2.47807281
N       15.22366524       6.61701117       3.51554840
O       14.70443825       7.57372235       5.51541993
O       15.77515475       5.68465001       1.51276244
C        8.96119910       3.32606178       6.16107932
C        7.84083670       2.47697967       6.25757507
C        8.42906528       1.48231624       4.12215406
C        7.57432170       1.56725612       5.25626547
C        8.15421035       0.54374937       3.08894500
C        8.98288970       0.46179036       1.98992144
C       10.10507536       1.30755191       1.88630222
C        6.39375073       0.67527868       5.36197272
C        6.97382174      -0.34859101       3.19398250
N        6.16125797      -0.23153413       4.32465938
O        5.60957590       0.70122741       6.32718729
O        6.68045956      -1.18886959       2.32499824
H       12.25841773       2.35321660       0.85109041
H       14.20903752       3.84554705       0.70328604
H       10.65319219       5.18591069       6.85223708
H       12.61845339       6.65296439       6.65076314
H       16.01926719       7.21829787       3.44462863
H        9.12619723       4.03274130       6.98862182
H        7.17537467       2.54035598       7.13651087
H        8.76686832      -0.26776521       1.18963343
H       10.73204999       1.19952860       0.98818383
H        5.36564938      -0.83279008       4.39573317
