80
Dimer: struct; Energy: -4906.06228 eV
C       -1.29972200       1.48833600      -0.03228100
C       -0.45010500       2.63965400       0.01843500
C        0.99654200       2.45238200       0.05441800
C       -0.76903400       0.15867800      -0.04877100
C        0.67752200      -0.02870400      -0.01297900
C        1.52709100       1.12265000       0.03785500
C        2.93347700       0.94084900       0.07277000
C        3.48023700      -0.37253000       0.05696900
C        3.79427800       2.07240500       0.12351100
C        5.26507800       1.88272800       0.16006300
C        1.24802600      -1.29258500      -0.02698300
C        2.64560500      -1.46904700       0.00777700
C        1.86805800       3.52983300       0.10418700
C        3.26457400       3.34539700       0.13880400
C        4.95087500      -0.56291500       0.09346700
N        5.75909100       0.57580800       0.14293500
O        6.06925500       2.83065500       0.20492200
O        5.48910000      -1.68427500       0.08194900
C       -1.02041300       3.90352800       0.03216900
C       -2.41794600       4.08003500      -0.00262400
C       -2.70602800       1.67000700      -0.06716000
C       -3.25245200       2.98347100      -0.05156500
C       -3.56691500       0.53850500      -0.11766500
C       -3.03687800      -0.73433100      -0.13279200
C       -1.64041100      -0.91883000      -0.09829200
C       -4.72314700       3.17392200      -0.08803700
C       -5.03773600       0.72818300      -0.15412500
N       -5.53143900       2.03522700      -0.13722100
O       -5.26133100       4.29529300      -0.07673500
O       -5.84203300      -0.21964700      -0.19870900
H        0.62972700      -2.20233100      -0.06573200
H        3.07286500      -2.48716200      -0.00439800
H        1.49989900       4.56697900       0.11841200
H        3.93550500       4.22152900       0.17822500
H        6.75033500       0.44779700       0.16755800
H       -0.40199700       4.81321100       0.07071000
H       -2.84532000       5.09816700       0.00933800
H       -3.70773700      -1.61056600      -0.17200800
H       -1.27202900      -1.95588300      -0.11238600
H       -6.52266300       2.16338500      -0.16179200
C        6.79783095       5.63340199       0.53456577
C        7.86806317       5.14656405       1.35160072
C        7.94917275       5.57584724       2.74382566
C        5.80520009       6.52954642       1.04593764
C        5.88609683       6.95873052       2.43812084
C        6.95641999       6.47195233       3.25508040
C        7.03543971       6.88908046       4.60857671
C        6.05851200       7.77912879       5.13544175
C        8.09155424       6.41642709       5.43634049
C        8.17457454       6.85241716       6.85182145
C        4.95310707       7.82500412       2.98781737
C        5.03501707       8.23703226       4.33284440
C        8.96314599       5.13725761       3.58192777
C        9.03846316       5.55377951       4.92591763
C        6.14091293       8.21547250       6.55077526
N        7.19438638       7.72702458       7.32792555
O        9.07269805       6.47484177       7.62518396
O        5.31829983       8.99115127       7.06932824
C        8.80091737       4.28012540       0.80216060
C        8.71903054       3.86805378      -0.54281348
C        6.71874031       5.21639610      -0.81886256
C        7.69566357       4.32620445      -1.34535077
C        5.66279477       5.68918182      -1.64676752
C        4.71615570       6.55192967      -1.13606198
C        4.79134695       6.96838956       0.20790887
C        7.61332224       3.88982958      -2.76074558
C        5.57982618       5.25325796      -3.06229149
N        6.56002665       4.37846459      -3.53803932
O        8.43582337       3.11398565      -3.27920557
O        4.68192388       5.63096304      -3.83583750
H        4.11588446       8.22129186       2.39330306
H        4.27825265       8.92772504       4.74455860
H        9.74482931       4.44843532       3.22708940
H        9.85690316       5.18880502       5.57109922
H        7.25018908       8.02095872       8.28188916
H        9.63798472       3.88373853       1.39683919
H        9.47566712       3.17716364      -0.95458562
H        3.89776424       6.91713891      -1.78122481
H        4.00984684       7.65730124       0.56293160
H        6.50437450       4.08448579      -4.49199557
