80
Dimer: struct; Energy: -4906.06228 eV
C       -1.29972200       1.48833600      -0.03228100
C       -0.45010500       2.63965400       0.01843500
C        0.99654200       2.45238200       0.05441800
C       -0.76903400       0.15867800      -0.04877100
C        0.67752200      -0.02870400      -0.01297900
C        1.52709100       1.12265000       0.03785500
C        2.93347700       0.94084900       0.07277000
C        3.48023700      -0.37253000       0.05696900
C        3.79427800       2.07240500       0.12351100
C        5.26507800       1.88272800       0.16006300
C        1.24802600      -1.29258500      -0.02698300
C        2.64560500      -1.46904700       0.00777700
C        1.86805800       3.52983300       0.10418700
C        3.26457400       3.34539700       0.13880400
C        4.95087500      -0.56291500       0.09346700
N        5.75909100       0.57580800       0.14293500
O        6.06925500       2.83065500       0.20492200
O        5.48910000      -1.68427500       0.08194900
C       -1.02041300       3.90352800       0.03216900
C       -2.41794600       4.08003500      -0.00262400
C       -2.70602800       1.67000700      -0.06716000
C       -3.25245200       2.98347100      -0.05156500
C       -3.56691500       0.53850500      -0.11766500
C       -3.03687800      -0.73433100      -0.13279200
C       -1.64041100      -0.91883000      -0.09829200
C       -4.72314700       3.17392200      -0.08803700
C       -5.03773600       0.72818300      -0.15412500
N       -5.53143900       2.03522700      -0.13722100
O       -5.26133100       4.29529300      -0.07673500
O       -5.84203300      -0.21964700      -0.19870900
H        0.62972700      -2.20233100      -0.06573200
H        3.07286500      -2.48716200      -0.00439800
H        1.49989900       4.56697900       0.11841200
H        3.93550500       4.22152900       0.17822500
H        6.75033500       0.44779700       0.16755800
H       -0.40199700       4.81321100       0.07071000
H       -2.84532000       5.09816700       0.00933800
H       -3.70773700      -1.61056600      -0.17200800
H       -1.27202900      -1.95588300      -0.11238600
H       -6.52266300       2.16338500      -0.16179200
C        7.82336061       3.63116433       7.46552596
C        6.76952459       3.33289416       8.38770752
C        6.79257195       3.94380490       9.71262639
C        8.89883836       4.51223966       7.80749954
C        8.92189398       5.12332005       9.13225104
C        7.86809149       4.82492189      10.05443674
C        7.89024168       5.41875219      11.34248457
C        8.95036779       6.29716049      11.70122132
C        6.85217071       5.13460826      12.27288389
C        6.87496771       5.75538061      13.61998746
C        9.93789643       5.98438951       9.51872811
C        9.95633570       6.57234008      10.79917658
C        5.79928295       3.69165013      10.64681732
C        5.82460671       4.28332008      11.92539359
C        8.97376258       6.91826976      13.04808086
N        7.93456275       6.61171144      13.93037104
O        5.99759554       5.54679814      14.47671962
O        9.87220133       7.69360605      13.42081203
C        5.75337146       2.47211213       8.00130821
C        5.73487205       1.88418194       6.72089436
C        7.80133144       3.03740150       6.17755163
C        6.74099278       2.15923729       5.81905528
C        8.83948385       3.32130225       5.24716789
C        9.86696152       4.17250824       5.59504364
C        9.89228585       4.76428245       6.87352405
C        6.71756055       1.53805315       4.47216005
C        8.81673446       2.70044990       3.90007981
N        7.75688717       1.84434778       3.58991003
O        5.81899948       0.76289485       4.09938629
O        9.69417443       2.90872444       3.04335118
H       10.76557018       6.23902159       8.83935224
H       10.77780131       7.25450116      11.08043802
H        4.95615657       3.02058323      10.42271390
H        5.02044711       4.06488227      12.64990857
H        7.95007422       7.03017864      14.83822696
H        4.92563471       2.21771762       8.68070663
H        4.91329715       1.20213513       6.43944946
H       10.67130471       4.39086542       4.87066138
H       10.73537423       5.43528464       7.09789187
H        7.74127353       1.42577375       2.68210761
