80
Dimer: struct; Energy: -4906.06228 eV
C       -1.29972200       1.48833600      -0.03228100
C       -0.45010500       2.63965400       0.01843500
C        0.99654200       2.45238200       0.05441800
C       -0.76903400       0.15867800      -0.04877100
C        0.67752200      -0.02870400      -0.01297900
C        1.52709100       1.12265000       0.03785500
C        2.93347700       0.94084900       0.07277000
C        3.48023700      -0.37253000       0.05696900
C        3.79427800       2.07240500       0.12351100
C        5.26507800       1.88272800       0.16006300
C        1.24802600      -1.29258500      -0.02698300
C        2.64560500      -1.46904700       0.00777700
C        1.86805800       3.52983300       0.10418700
C        3.26457400       3.34539700       0.13880400
C        4.95087500      -0.56291500       0.09346700
N        5.75909100       0.57580800       0.14293500
O        6.06925500       2.83065500       0.20492200
O        5.48910000      -1.68427500       0.08194900
C       -1.02041300       3.90352800       0.03216900
C       -2.41794600       4.08003500      -0.00262400
C       -2.70602800       1.67000700      -0.06716000
C       -3.25245200       2.98347100      -0.05156500
C       -3.56691500       0.53850500      -0.11766500
C       -3.03687800      -0.73433100      -0.13279200
C       -1.64041100      -0.91883000      -0.09829200
C       -4.72314700       3.17392200      -0.08803700
C       -5.03773600       0.72818300      -0.15412500
N       -5.53143900       2.03522700      -0.13722100
O       -5.26133100       4.29529300      -0.07673500
O       -5.84203300      -0.21964700      -0.19870900
H        0.62972700      -2.20233100      -0.06573200
H        3.07286500      -2.48716200      -0.00439800
H        1.49989900       4.56697900       0.11841200
H        3.93550500       4.22152900       0.17822500
H        6.75033500       0.44779700       0.16755800
H       -0.40199700       4.81321100       0.07071000
H       -2.84532000       5.09816700       0.00933800
H       -3.70773700      -1.61056600      -0.17200800
H       -1.27202900      -1.95588300      -0.11238600
H       -6.52266300       2.16338500      -0.16179200
C        7.36952017       7.84391859       4.54990294
C        6.49763781       7.15281447       3.64870899
C        5.57234727       6.15768670       4.18041499
C        7.35837883       7.58558564       5.95810464
C        6.43305421       6.59066675       6.48992050
C        5.56127384       5.89950645       5.58866358
C        4.66161871       4.93210488       6.10533283
C        4.63532219       4.66126705       7.50179834
C        3.78746983       4.23472721       5.22584428
C        2.84651037       3.22295953       5.76574012
C        6.37786271       6.29906941       7.84453889
C        5.48272422       5.33739615       8.35393636
C        4.70507197       5.45739804       3.35558344
C        3.81277491       4.49708806       3.87238380
C        3.69463425       3.64969651       8.04234058
N        2.85404330       2.98844147       7.14317492
O        2.05831036       2.58067770       5.04915561
O        3.62409215       3.36857191       9.25199336
C        6.55251551       7.44447685       2.29418368
C        7.44758773       8.40614001       1.78475906
C        8.26917984       8.81124831       4.03337303
C        8.29508299       9.08200317       2.63693796
C        9.14353076       9.50850803       4.91275537
C        9.11806293       9.24578931       6.26612517
C        8.22573912       8.28560242       6.78299029
C        9.23580950      10.09358891       2.09631471
C       10.08456585      10.52022258       4.37284046
N       10.07663476      10.75468585       2.99539482
O        9.30617609      10.37484297       0.88669189
O       10.87300557      11.16237810       5.08926366
H        7.03098210       6.80820515       8.56955529
H        5.46002330       5.12507295       9.43729273
H        4.68299244       5.62684364       2.26828591
H        3.13296506       3.95402022       3.19249735
H        2.21992652       2.30658199       7.50720972
H        5.89919379       6.93541815       1.56928583
H        7.47022075       8.61869523       0.70138820
H        9.79798816       9.78866527       6.94609932
H        8.24772606       8.11590342       7.87023529
H       10.71073180      11.43648381       2.63121670
