80
Dimer: struct; Energy: -4906.06228 eV
C       -1.29972200       1.48833600      -0.03228100
C       -0.45010500       2.63965400       0.01843500
C        0.99654200       2.45238200       0.05441800
C       -0.76903400       0.15867800      -0.04877100
C        0.67752200      -0.02870400      -0.01297900
C        1.52709100       1.12265000       0.03785500
C        2.93347700       0.94084900       0.07277000
C        3.48023700      -0.37253000       0.05696900
C        3.79427800       2.07240500       0.12351100
C        5.26507800       1.88272800       0.16006300
C        1.24802600      -1.29258500      -0.02698300
C        2.64560500      -1.46904700       0.00777700
C        1.86805800       3.52983300       0.10418700
C        3.26457400       3.34539700       0.13880400
C        4.95087500      -0.56291500       0.09346700
N        5.75909100       0.57580800       0.14293500
O        6.06925500       2.83065500       0.20492200
O        5.48910000      -1.68427500       0.08194900
C       -1.02041300       3.90352800       0.03216900
C       -2.41794600       4.08003500      -0.00262400
C       -2.70602800       1.67000700      -0.06716000
C       -3.25245200       2.98347100      -0.05156500
C       -3.56691500       0.53850500      -0.11766500
C       -3.03687800      -0.73433100      -0.13279200
C       -1.64041100      -0.91883000      -0.09829200
C       -4.72314700       3.17392200      -0.08803700
C       -5.03773600       0.72818300      -0.15412500
N       -5.53143900       2.03522700      -0.13722100
O       -5.26133100       4.29529300      -0.07673500
O       -5.84203300      -0.21964700      -0.19870900
H        0.62972700      -2.20233100      -0.06573200
H        3.07286500      -2.48716200      -0.00439800
H        1.49989900       4.56697900       0.11841200
H        3.93550500       4.22152900       0.17822500
H        6.75033500       0.44779700       0.16755800
H       -0.40199700       4.81321100       0.07071000
H       -2.84532000       5.09816700       0.00933800
H       -3.70773700      -1.61056600      -0.17200800
H       -1.27202900      -1.95588300      -0.11238600
H       -6.52266300       2.16338500      -0.16179200
C        4.91380240       1.95068733       6.83220049
C        5.22241572       1.91641658       8.22989060
C        5.23209661       3.16508994       8.98479077
C        4.61439643       3.17614438       6.15507189
C        4.62386602       4.42478957       6.90986516
C        4.93260184       4.39047439       8.30753189
C        4.94200462       5.60422949       9.04163161
C        4.64697763       6.83236757       8.38680606
C        5.24646639       5.59078059      10.43126974
C        5.25643470       6.85985619      11.19932822
C        4.34159810       5.64142420       6.30721179
C        4.35191680       6.84501772       7.03989885
C        5.52396680       3.19297308      10.34013282
C        5.53240215       4.40059513      11.06611473
C        4.65673769       8.10174278       9.15423423
N        4.96095986       8.04268960      10.51669959
O        5.51465996       6.91374896      12.41493254
O        4.40752261       9.20632750       8.63940269
C        5.50442065       0.69990478       8.83270863
C        5.49408001      -0.50368455       8.10009036
C        4.90440736       0.73707880       6.09804551
C        5.19925529      -0.49087522       6.75318190
C        4.60018675       0.75045766       4.70835318
C        4.31445043       1.94082892       4.07380566
C        4.32275737       3.14843630       4.79972964
C        5.18953434      -1.76033198       5.98576375
C        4.59030824      -0.51862319       3.94026615
N        4.88559465      -1.70131899       4.62322221
O        5.43854142      -2.86491900       6.50066731
O        4.33237121      -0.57263386       2.72461223
H        4.09959182       5.71009469       5.23569406
H        4.12332357       7.79973360       6.53440876
H        5.75931896       2.27302609      10.89665966
H        5.76831558       4.39366351      12.14482067
H        4.96762832       8.89808934      11.03419798
H        5.74621147       0.63133762       9.90428815
H        5.72246783      -1.45852704       8.60555967
H        4.07871546       1.94790594       2.99503024
H        4.08755564       4.06851726       4.24338978
H        4.87900910      -2.55678638       4.10583899
