80
Dimer: struct; Energy: -4906.06228 eV
C       -1.29972200       1.48833600      -0.03228100
C       -0.45010500       2.63965400       0.01843500
C        0.99654200       2.45238200       0.05441800
C       -0.76903400       0.15867800      -0.04877100
C        0.67752200      -0.02870400      -0.01297900
C        1.52709100       1.12265000       0.03785500
C        2.93347700       0.94084900       0.07277000
C        3.48023700      -0.37253000       0.05696900
C        3.79427800       2.07240500       0.12351100
C        5.26507800       1.88272800       0.16006300
C        1.24802600      -1.29258500      -0.02698300
C        2.64560500      -1.46904700       0.00777700
C        1.86805800       3.52983300       0.10418700
C        3.26457400       3.34539700       0.13880400
C        4.95087500      -0.56291500       0.09346700
N        5.75909100       0.57580800       0.14293500
O        6.06925500       2.83065500       0.20492200
O        5.48910000      -1.68427500       0.08194900
C       -1.02041300       3.90352800       0.03216900
C       -2.41794600       4.08003500      -0.00262400
C       -2.70602800       1.67000700      -0.06716000
C       -3.25245200       2.98347100      -0.05156500
C       -3.56691500       0.53850500      -0.11766500
C       -3.03687800      -0.73433100      -0.13279200
C       -1.64041100      -0.91883000      -0.09829200
C       -4.72314700       3.17392200      -0.08803700
C       -5.03773600       0.72818300      -0.15412500
N       -5.53143900       2.03522700      -0.13722100
O       -5.26133100       4.29529300      -0.07673500
O       -5.84203300      -0.21964700      -0.19870900
H        0.62972700      -2.20233100      -0.06573200
H        3.07286500      -2.48716200      -0.00439800
H        1.49989900       4.56697900       0.11841200
H        3.93550500       4.22152900       0.17822500
H        6.75033500       0.44779700       0.16755800
H       -0.40199700       4.81321100       0.07071000
H       -2.84532000       5.09816700       0.00933800
H       -3.70773700      -1.61056600      -0.17200800
H       -1.27202900      -1.95588300      -0.11238600
H       -6.52266300       2.16338500      -0.16179200
C        4.47405255       8.16365970       6.81163008
C        5.18559136       9.38750099       6.59743551
C        5.26302992      10.36172639       7.68096736
C        3.83667735       7.86949102       8.05947210
C        3.91419994       8.84350601       9.14307830
C        4.62565423      10.06738532       8.92878920
C        4.70113434      11.01459766       9.98201461
C        4.07443117      10.74067274      11.22955973
C        5.40345523      12.23659007       9.78848960
C        5.48260792      13.22743127      10.88964110
C        3.31655139       8.61272106      10.37296473
C        3.39380577       9.55615593      11.41677341
C        5.93808720      11.56369593       7.53101858
C        6.01094042      12.50225809       8.57947716
C        4.15321733      11.73101296      12.33109215
N        4.85289146      12.91779085      12.09793002
O        6.08105320      14.31263051      10.78247565
O        3.62685929      11.54998804      13.44349687
C        5.78348701       9.61829974       5.36777294
C        5.70629113       8.67490578       4.32397583
C        4.39848320       7.21645649       5.75853331
C        5.02545138       7.49057327       4.51122382
C        3.69598489       5.99453830       5.95188796
C        3.08849653       5.72926838       7.16096582
C        3.16140460       6.66770877       8.20947155
C        4.94667166       6.50023703       3.40960071
C        3.61675388       5.00372500       4.85069181
N        4.24676776       5.31354973       3.64260094
O        5.47321969       6.68119715       2.29728634
O        3.01811765       3.91861508       4.95762276
H        2.76090308       7.68487060      10.57736975
H        2.90842783       9.34633347      12.38612386
H        6.44075648      11.82708360       6.58795668
H        6.55526046      13.45170181       8.43256894
H        4.90614789      13.58547174      12.84017240
H        6.33928923      10.54610697       5.16355598
H        6.19183742       8.88455514       3.35460678
H        2.54396157       4.77992002       7.30792441
H        2.65871056       6.40459110       9.15257847
H        4.19355184       4.64598185       2.90025706
