80
Dimer: struct; Energy: -4906.06228 eV
C       -1.29972200       1.48833600      -0.03228100
C       -0.45010500       2.63965400       0.01843500
C        0.99654200       2.45238200       0.05441800
C       -0.76903400       0.15867800      -0.04877100
C        0.67752200      -0.02870400      -0.01297900
C        1.52709100       1.12265000       0.03785500
C        2.93347700       0.94084900       0.07277000
C        3.48023700      -0.37253000       0.05696900
C        3.79427800       2.07240500       0.12351100
C        5.26507800       1.88272800       0.16006300
C        1.24802600      -1.29258500      -0.02698300
C        2.64560500      -1.46904700       0.00777700
C        1.86805800       3.52983300       0.10418700
C        3.26457400       3.34539700       0.13880400
C        4.95087500      -0.56291500       0.09346700
N        5.75909100       0.57580800       0.14293500
O        6.06925500       2.83065500       0.20492200
O        5.48910000      -1.68427500       0.08194900
C       -1.02041300       3.90352800       0.03216900
C       -2.41794600       4.08003500      -0.00262400
C       -2.70602800       1.67000700      -0.06716000
C       -3.25245200       2.98347100      -0.05156500
C       -3.56691500       0.53850500      -0.11766500
C       -3.03687800      -0.73433100      -0.13279200
C       -1.64041100      -0.91883000      -0.09829200
C       -4.72314700       3.17392200      -0.08803700
C       -5.03773600       0.72818300      -0.15412500
N       -5.53143900       2.03522700      -0.13722100
O       -5.26133100       4.29529300      -0.07673500
O       -5.84203300      -0.21964700      -0.19870900
H        0.62972700      -2.20233100      -0.06573200
H        3.07286500      -2.48716200      -0.00439800
H        1.49989900       4.56697900       0.11841200
H        3.93550500       4.22152900       0.17822500
H        6.75033500       0.44779700       0.16755800
H       -0.40199700       4.81321100       0.07071000
H       -2.84532000       5.09816700       0.00933800
H       -3.70773700      -1.61056600      -0.17200800
H       -1.27202900      -1.95588300      -0.11238600
H       -6.52266300       2.16338500      -0.16179200
C        4.73943094       9.34839050       1.58425474
C        5.78178101       9.66802162       0.65619408
C        5.70357163       9.14778849      -0.70483270
C        3.62269457       8.53264755       1.21363984
C        3.54428761       8.01253788      -0.14733614
C        4.58672809       8.33210471      -1.07532457
C        4.51088081       7.82653745      -2.39851812
C        3.40904252       7.01422963      -2.78616350
C        5.53691676       8.13292587      -3.33518688
C        5.45799876       7.60440429      -4.71902319
C        2.48651183       7.21777021      -0.56269246
C        2.41474557       6.71747924      -1.87803754
C        6.68354094       9.42419571      -1.64620243
C        6.60487188       8.92020658      -2.95970083
C        3.32948707       6.48543171      -4.16978135
N        4.35869019       6.81088712      -5.05700734
O        6.32233459       7.83650232      -5.58292865
O        2.39284467       5.77080548      -4.56887710
C        6.83941773      10.46295168       1.07129416
C        6.91120695      10.96328009       2.38658179
C        4.81518995       9.85383976       2.90739459
C        5.91700701      10.66626713       3.29465550
C        3.78931994       9.54731077       3.84420015
C        2.72159883       8.75988460       3.46841939
C        2.64281275       8.25597151       2.15494515
C        5.99662977      11.19509343       4.67832762
C        3.86828611      10.07576382       5.22807992
N        4.96759606      10.86944232       5.56569581
O        6.93317007      11.90988971       5.07732789
O        3.00417176       9.84352492       6.09216012
H        1.66584603       6.94965723       0.11999048
H        1.56079994       6.08679598      -2.18180222
H        7.55728906      10.04688755      -1.40077563
H        7.39956354       9.15611562      -3.68916762
H        4.30534590       6.45460786      -5.98962584
H        7.65992596      10.73116939       0.38845272
H        7.76505049      11.59417632       2.69040007
H        1.92693012       8.52373627       4.19788020
H        1.76922199       7.63316023       1.90932727
H        5.02109349      11.22574952       6.49829241
