80
Dimer: struct; Energy: -4906.06228 eV
C       -1.29972200       1.48833600      -0.03228100
C       -0.45010500       2.63965400       0.01843500
C        0.99654200       2.45238200       0.05441800
C       -0.76903400       0.15867800      -0.04877100
C        0.67752200      -0.02870400      -0.01297900
C        1.52709100       1.12265000       0.03785500
C        2.93347700       0.94084900       0.07277000
C        3.48023700      -0.37253000       0.05696900
C        3.79427800       2.07240500       0.12351100
C        5.26507800       1.88272800       0.16006300
C        1.24802600      -1.29258500      -0.02698300
C        2.64560500      -1.46904700       0.00777700
C        1.86805800       3.52983300       0.10418700
C        3.26457400       3.34539700       0.13880400
C        4.95087500      -0.56291500       0.09346700
N        5.75909100       0.57580800       0.14293500
O        6.06925500       2.83065500       0.20492200
O        5.48910000      -1.68427500       0.08194900
C       -1.02041300       3.90352800       0.03216900
C       -2.41794600       4.08003500      -0.00262400
C       -2.70602800       1.67000700      -0.06716000
C       -3.25245200       2.98347100      -0.05156500
C       -3.56691500       0.53850500      -0.11766500
C       -3.03687800      -0.73433100      -0.13279200
C       -1.64041100      -0.91883000      -0.09829200
C       -4.72314700       3.17392200      -0.08803700
C       -5.03773600       0.72818300      -0.15412500
N       -5.53143900       2.03522700      -0.13722100
O       -5.26133100       4.29529300      -0.07673500
O       -5.84203300      -0.21964700      -0.19870900
H        0.62972700      -2.20233100      -0.06573200
H        3.07286500      -2.48716200      -0.00439800
H        1.49989900       4.56697900       0.11841200
H        3.93550500       4.22152900       0.17822500
H        6.75033500       0.44779700       0.16755800
H       -0.40199700       4.81321100       0.07071000
H       -2.84532000       5.09816700       0.00933800
H       -3.70773700      -1.61056600      -0.17200800
H       -1.27202900      -1.95588300      -0.11238600
H       -6.52266300       2.16338500      -0.16179200
C        3.35218701       4.78334044       7.15058940
C        4.28925736       4.17857394       8.04842621
C        5.60493367       3.79477524       7.54757942
C        3.67053940       5.02191109       5.77522477
C        4.98617759       4.63834397       5.27433580
C        5.92316959       4.03347236       6.17219099
C        7.20228731       3.66034382       5.68554410
C        7.53769527       3.88925846       4.32199720
C        8.14708502       3.05795646       6.56216190
C        9.48483757       2.66757761       6.05364589
C        5.35003971       4.84517179       3.95225686
C        6.62170617       4.47314849       3.47263488
C        6.55260680       3.20540298       8.37066735
C        7.82222540       2.83603371       7.88373117
C        8.87521619       3.49917204       3.81285570
N        9.77222787       2.91060303       4.70801312
O       10.35325023       2.13764252       6.76940201
O        9.22773602       3.67291384       2.63268172
C        3.92566550       3.97194158       9.37051598
C        2.65405902       4.34396982       9.85017806
C        2.07311447       5.15644991       7.63708732
C        1.73809959       4.92760723       9.00068775
C        1.12816695       5.75862928       6.76048698
C        1.45330555       5.98026316       5.43895649
C        2.72290771       5.61103264       4.95199717
C        0.40052600       5.31766721       9.50989858
C       -0.20963505       6.14892917       7.26898802
N       -0.49664536       5.90598860       8.61472104
O        0.04811635       5.14410940      10.69012220
O       -1.07823610       6.67861789       6.55328893
H        4.65877961       5.30704759       3.23096417
H        6.88488394       4.64958015       2.41486987
H        6.34667146       3.00530878       9.43319649
H        8.55786264       2.36826318       8.56147617
H       10.67378372       2.64756772       4.36513230
H        4.61709406       3.51024191      10.09176967
H        2.39084629       4.16776091      10.90803149
H        0.71765472       6.44785402       4.76105228
H        2.92902184       5.81091838       3.88947869
H       -1.39817914       6.16892950       8.95772562
