80
Dimer: struct; Energy: -4906.06228 eV
C       -1.29972200       1.48833600      -0.03228100
C       -0.45010500       2.63965400       0.01843500
C        0.99654200       2.45238200       0.05441800
C       -0.76903400       0.15867800      -0.04877100
C        0.67752200      -0.02870400      -0.01297900
C        1.52709100       1.12265000       0.03785500
C        2.93347700       0.94084900       0.07277000
C        3.48023700      -0.37253000       0.05696900
C        3.79427800       2.07240500       0.12351100
C        5.26507800       1.88272800       0.16006300
C        1.24802600      -1.29258500      -0.02698300
C        2.64560500      -1.46904700       0.00777700
C        1.86805800       3.52983300       0.10418700
C        3.26457400       3.34539700       0.13880400
C        4.95087500      -0.56291500       0.09346700
N        5.75909100       0.57580800       0.14293500
O        6.06925500       2.83065500       0.20492200
O        5.48910000      -1.68427500       0.08194900
C       -1.02041300       3.90352800       0.03216900
C       -2.41794600       4.08003500      -0.00262400
C       -2.70602800       1.67000700      -0.06716000
C       -3.25245200       2.98347100      -0.05156500
C       -3.56691500       0.53850500      -0.11766500
C       -3.03687800      -0.73433100      -0.13279200
C       -1.64041100      -0.91883000      -0.09829200
C       -4.72314700       3.17392200      -0.08803700
C       -5.03773600       0.72818300      -0.15412500
N       -5.53143900       2.03522700      -0.13722100
O       -5.26133100       4.29529300      -0.07673500
O       -5.84203300      -0.21964700      -0.19870900
H        0.62972700      -2.20233100      -0.06573200
H        3.07286500      -2.48716200      -0.00439800
H        1.49989900       4.56697900       0.11841200
H        3.93550500       4.22152900       0.17822500
H        6.75033500       0.44779700       0.16755800
H       -0.40199700       4.81321100       0.07071000
H       -2.84532000       5.09816700       0.00933800
H       -3.70773700      -1.61056600      -0.17200800
H       -1.27202900      -1.95588300      -0.11238600
H       -6.52266300       2.16338500      -0.16179200
C        9.81026993       3.75540477       2.99758721
C       10.59143433       3.20993808       4.06632598
C        9.99925288       3.10539625       5.39581658
C        8.46434875       4.20088816       3.19741912
C        7.87203076       4.09623190       4.52675121
C        8.65328277       3.55086418       5.59548268
C        8.07778867       3.44906680       6.88801356
C        6.74167224       3.88621504       7.10677116
C        8.83804392       2.90997978       7.96289454
C        8.23660447       2.80337163       9.31473452
C        6.57324081       4.51146401       4.77932413
C        6.00509815       4.40866052       6.06471105
C       10.70793510       2.58576540       6.46850995
C       10.13299281       2.48621836       7.75108691
C        6.13963517       3.77986870       8.45828753
N        6.92174721       3.24446760       9.48493094
O        8.84911890       2.34166853      10.29398674
O        4.97789992       4.14437955       8.71278728
C       11.89006453       2.79443632       3.81386765
C       12.45822165       2.89718503       2.52852569
C       10.38563703       3.85727550       1.70511186
C       11.72165516       3.41985751       1.48663733
C        9.62553800       4.39656629       0.63022169
C        8.33068436       4.82036534       0.84241957
C        7.75566027       4.72074543       2.12490676
C       12.32377712       3.52620897       0.13508855
C       10.22701677       4.50326014      -0.72161454
N       11.54181194       4.06186620      -0.89154825
O       13.48543440       3.16149272      -0.11942486
O        9.61472061       4.96518978      -1.70088852
H        5.94035908       4.93587067       3.98511219
H        4.96834658       4.74709595       6.23752637
H       11.74435986       2.23277761       6.35608859
H       10.72033835       2.06828623       8.58754830
H        6.51624565       3.17268132      10.39595947
H       12.52278242       2.36985024       4.60812307
H       13.49494863       2.55856727       2.35555287
H        7.74329709       5.23851359       0.00605499
H        6.71929604       5.07378097       2.23759193
H       11.94745593       4.13363694      -1.80251210
