80
Dimer: struct; Energy: -4906.06228 eV
C       -1.29972200       1.48833600      -0.03228100
C       -0.45010500       2.63965400       0.01843500
C        0.99654200       2.45238200       0.05441800
C       -0.76903400       0.15867800      -0.04877100
C        0.67752200      -0.02870400      -0.01297900
C        1.52709100       1.12265000       0.03785500
C        2.93347700       0.94084900       0.07277000
C        3.48023700      -0.37253000       0.05696900
C        3.79427800       2.07240500       0.12351100
C        5.26507800       1.88272800       0.16006300
C        1.24802600      -1.29258500      -0.02698300
C        2.64560500      -1.46904700       0.00777700
C        1.86805800       3.52983300       0.10418700
C        3.26457400       3.34539700       0.13880400
C        4.95087500      -0.56291500       0.09346700
N        5.75909100       0.57580800       0.14293500
O        6.06925500       2.83065500       0.20492200
O        5.48910000      -1.68427500       0.08194900
C       -1.02041300       3.90352800       0.03216900
C       -2.41794600       4.08003500      -0.00262400
C       -2.70602800       1.67000700      -0.06716000
C       -3.25245200       2.98347100      -0.05156500
C       -3.56691500       0.53850500      -0.11766500
C       -3.03687800      -0.73433100      -0.13279200
C       -1.64041100      -0.91883000      -0.09829200
C       -4.72314700       3.17392200      -0.08803700
C       -5.03773600       0.72818300      -0.15412500
N       -5.53143900       2.03522700      -0.13722100
O       -5.26133100       4.29529300      -0.07673500
O       -5.84203300      -0.21964700      -0.19870900
H        0.62972700      -2.20233100      -0.06573200
H        3.07286500      -2.48716200      -0.00439800
H        1.49989900       4.56697900       0.11841200
H        3.93550500       4.22152900       0.17822500
H        6.75033500       0.44779700       0.16755800
H       -0.40199700       4.81321100       0.07071000
H       -2.84532000       5.09816700       0.00933800
H       -3.70773700      -1.61056600      -0.17200800
H       -1.27202900      -1.95588300      -0.11238600
H       -6.52266300       2.16338500      -0.16179200
C        3.18728723       6.64037968      10.17211111
C        2.12005357       7.47854678       9.71555607
C        1.49734121       7.19498603       8.42676759
C        3.66010137       5.53185911       9.39911627
C        3.03737787       5.24810520       8.11046717
C        1.97022355       6.08637811       7.65390633
C        1.36465137       5.81087086       6.40108139
C        1.82024624       4.71373776       5.61820666
C        0.30290156       6.63236557       5.93011879
C       -0.33063981       6.34461552       4.62000762
C        3.45349571       4.18817813       7.31897070
C        2.84935731       3.91772074       6.07500778
C        0.46029856       7.97238627       7.93370657
C       -0.13882394       7.69572105       6.68872444
C        1.18715916       4.42541863       4.30808166
N        0.14786145       5.25752348       3.88403918
O       -1.26180431       7.02510222       4.15401501
O        1.54025604       3.48204364       3.57826436
C        1.70366630       8.53828123      10.50701161
C        2.30773412       8.80874852      11.75096228
C        3.79291490       6.91579852      11.42481900
C        3.33696589       8.01283481      12.20752709
C        4.85482847       6.09450024      11.89575704
C        5.29639709       5.03133194      11.13683025
C        4.69726175       4.75455109       9.89192888
C        3.97006143       8.30122778      13.51770459
C        5.48843862       6.38230980      13.20584304
N        5.00956305       7.46932735      13.94168503
O        3.61679978       9.24447439      14.24759136
O        6.41978478       5.70208082      13.67183228
H        4.27004693       3.52085394       7.63417771
H        3.20079738       3.06690600       5.46520318
H        0.06854930       8.83284197       8.49723450
H       -0.96313009       8.33137517       6.32025068
H       -0.27901827       5.06344826       3.00105203
H        0.88695811       9.20541571      10.19178751
H        1.95620837       9.65945847      12.36096772
H        6.12085479       4.39571506      11.50512109
H        5.08892510       3.89422394       9.32817372
H        5.43638143       7.66354724      14.82466743
