80
Dimer: struct; Energy: -4906.06228 eV
C       -1.29972200       1.48833600      -0.03228100
C       -0.45010500       2.63965400       0.01843500
C        0.99654200       2.45238200       0.05441800
C       -0.76903400       0.15867800      -0.04877100
C        0.67752200      -0.02870400      -0.01297900
C        1.52709100       1.12265000       0.03785500
C        2.93347700       0.94084900       0.07277000
C        3.48023700      -0.37253000       0.05696900
C        3.79427800       2.07240500       0.12351100
C        5.26507800       1.88272800       0.16006300
C        1.24802600      -1.29258500      -0.02698300
C        2.64560500      -1.46904700       0.00777700
C        1.86805800       3.52983300       0.10418700
C        3.26457400       3.34539700       0.13880400
C        4.95087500      -0.56291500       0.09346700
N        5.75909100       0.57580800       0.14293500
O        6.06925500       2.83065500       0.20492200
O        5.48910000      -1.68427500       0.08194900
C       -1.02041300       3.90352800       0.03216900
C       -2.41794600       4.08003500      -0.00262400
C       -2.70602800       1.67000700      -0.06716000
C       -3.25245200       2.98347100      -0.05156500
C       -3.56691500       0.53850500      -0.11766500
C       -3.03687800      -0.73433100      -0.13279200
C       -1.64041100      -0.91883000      -0.09829200
C       -4.72314700       3.17392200      -0.08803700
C       -5.03773600       0.72818300      -0.15412500
N       -5.53143900       2.03522700      -0.13722100
O       -5.26133100       4.29529300      -0.07673500
O       -5.84203300      -0.21964700      -0.19870900
H        0.62972700      -2.20233100      -0.06573200
H        3.07286500      -2.48716200      -0.00439800
H        1.49989900       4.56697900       0.11841200
H        3.93550500       4.22152900       0.17822500
H        6.75033500       0.44779700       0.16755800
H       -0.40199700       4.81321100       0.07071000
H       -2.84532000       5.09816700       0.00933800
H       -3.70773700      -1.61056600      -0.17200800
H       -1.27202900      -1.95588300      -0.11238600
H       -6.52266300       2.16338500      -0.16179200
C        9.42164186       6.83212168       1.17866761
C        9.47491617       7.28235799      -0.17942053
C        9.51508797       6.29478968      -1.25284877
C        9.40659029       5.43988678       1.51235537
C        9.44657082       4.45228083       0.43906446
C        9.49996299       4.90257442      -0.91900496
C        9.53895024       3.94270222      -1.96270875
C        9.52463564       2.55449153      -1.65153882
C        9.59228051       4.37034485      -3.31852941
C        9.63309130       3.36687763      -4.41029590
C        9.43412606       3.09080174       0.70228667
C        9.47293313       2.14037136      -0.33730471
C        9.56747316       6.67205745      -2.58620640
C        9.60613352       5.71572727      -3.62032915
C        9.56539191       1.55053942      -2.74276463
N        9.61729694       2.01437362      -4.05977411
O        9.68036074       3.67719925      -5.61393399
O        9.55535045       0.32409448      -2.53540254
C        9.48709150       8.64371784      -0.44279945
C        9.44825156       9.59415838       0.59672833
C        9.38269083       7.79184160       2.22238115
C        9.39680042       9.17992753       1.91088725
C        9.32959632       7.36429308       3.57824147
C        9.31591028       6.01884621       3.87967962
C        9.35445350       5.06249266       2.84563295
C        9.35606999      10.18396647       3.00212160
C        9.28887746       8.36777338       4.67002475
N        9.30444874       9.72019945       4.31917768
O        9.36589556      11.41039640       2.79471915
O        9.24188268       8.05760067       5.87370556
H        9.39350968       2.70442922       1.73209224
H        9.46192030       1.06227553      -0.09888157
H        9.58070920       7.73160105      -2.88387633
H        9.64757221       6.04427915      -4.67372661
H        9.64479014       1.33794228      -4.79546600
H        9.52750021       9.02997107      -1.47266473
H        9.45905106      10.67233353       0.35838797
H        9.27467679       5.69016899       4.93307819
H        9.34134912       4.00289656       3.14306741
H        9.27700761      10.39673939       5.05476854
