80
Dimer: struct; Energy: -4906.06228 eV
C       -1.29972200       1.48833600      -0.03228100
C       -0.45010500       2.63965400       0.01843500
C        0.99654200       2.45238200       0.05441800
C       -0.76903400       0.15867800      -0.04877100
C        0.67752200      -0.02870400      -0.01297900
C        1.52709100       1.12265000       0.03785500
C        2.93347700       0.94084900       0.07277000
C        3.48023700      -0.37253000       0.05696900
C        3.79427800       2.07240500       0.12351100
C        5.26507800       1.88272800       0.16006300
C        1.24802600      -1.29258500      -0.02698300
C        2.64560500      -1.46904700       0.00777700
C        1.86805800       3.52983300       0.10418700
C        3.26457400       3.34539700       0.13880400
C        4.95087500      -0.56291500       0.09346700
N        5.75909100       0.57580800       0.14293500
O        6.06925500       2.83065500       0.20492200
O        5.48910000      -1.68427500       0.08194900
C       -1.02041300       3.90352800       0.03216900
C       -2.41794600       4.08003500      -0.00262400
C       -2.70602800       1.67000700      -0.06716000
C       -3.25245200       2.98347100      -0.05156500
C       -3.56691500       0.53850500      -0.11766500
C       -3.03687800      -0.73433100      -0.13279200
C       -1.64041100      -0.91883000      -0.09829200
C       -4.72314700       3.17392200      -0.08803700
C       -5.03773600       0.72818300      -0.15412500
N       -5.53143900       2.03522700      -0.13722100
O       -5.26133100       4.29529300      -0.07673500
O       -5.84203300      -0.21964700      -0.19870900
H        0.62972700      -2.20233100      -0.06573200
H        3.07286500      -2.48716200      -0.00439800
H        1.49989900       4.56697900       0.11841200
H        3.93550500       4.22152900       0.17822500
H        6.75033500       0.44779700       0.16755800
H       -0.40199700       4.81321100       0.07071000
H       -2.84532000       5.09816700       0.00933800
H       -3.70773700      -1.61056600      -0.17200800
H       -1.27202900      -1.95588300      -0.11238600
H       -6.52266300       2.16338500      -0.16179200
C        6.03322700       7.28412202       5.62113028
C        6.40291837       8.65623375       5.44622466
C        5.82268626       9.41162450       4.34084299
C        5.11001861       6.63304071       4.74154431
C        4.52961279       7.38833979       3.63629785
C        4.89943047       8.76041939       3.46136905
C        4.33543715       9.49499571       2.38689178
C        3.41601628       8.86585610       1.50201372
C        4.69046116      10.85942274       2.19644804
C        4.10091099      11.62796853       1.07291165
C        3.63026062       6.81030411       2.75306146
C        3.07213860       7.54338103       1.68691317
C        6.14371630      10.74284035       4.12238971
C        5.58150771      11.46937306       3.05395926
C        2.82609542       9.63378873       0.37834671
N        3.20243347      10.97101595       0.22820249
O        4.37108744      12.82225832       0.85392502
O        2.01764859       9.14072381      -0.42823110
C        7.30199254       9.23445269       6.32948330
C        7.86009788       8.50144594       7.39563680
C        6.59714889       6.54949039       6.69547935
C        7.51634176       7.17895324       7.58027936
C        6.24236418       5.18499196       6.88586270
C        5.35141283       4.57532463       6.02808012
C        4.78909785       5.30180865       4.95972950
C        8.10633834       6.41102762       8.70399634
C        6.83199233       4.41641129       8.00935898
N        7.73025849       5.07370421       8.85403426
O        8.91461229       6.90417916       9.51067933
O        6.56212022       3.22205123       8.22830237
H        3.32061137       5.75888563       2.85340815
H        2.35827667       7.05779594       0.99853409
H        6.84886783      11.27893821       4.77567037
H        5.85494423      12.52854780       2.90332382
H        2.80500098      11.48884691      -0.52906648
H        7.61140807      10.28594838       6.22915503
H        8.57384664       8.98702461       8.08422990
H        5.07805115       3.51606825       6.17850214
H        4.08401892       4.76588694       4.30625075
H        8.12780379       4.55598207       9.61131541
