80
Dimer: struct; Energy: -4906.06228 eV
C       -1.29972200       1.48833600      -0.03228100
C       -0.45010500       2.63965400       0.01843500
C        0.99654200       2.45238200       0.05441800
C       -0.76903400       0.15867800      -0.04877100
C        0.67752200      -0.02870400      -0.01297900
C        1.52709100       1.12265000       0.03785500
C        2.93347700       0.94084900       0.07277000
C        3.48023700      -0.37253000       0.05696900
C        3.79427800       2.07240500       0.12351100
C        5.26507800       1.88272800       0.16006300
C        1.24802600      -1.29258500      -0.02698300
C        2.64560500      -1.46904700       0.00777700
C        1.86805800       3.52983300       0.10418700
C        3.26457400       3.34539700       0.13880400
C        4.95087500      -0.56291500       0.09346700
N        5.75909100       0.57580800       0.14293500
O        6.06925500       2.83065500       0.20492200
O        5.48910000      -1.68427500       0.08194900
C       -1.02041300       3.90352800       0.03216900
C       -2.41794600       4.08003500      -0.00262400
C       -2.70602800       1.67000700      -0.06716000
C       -3.25245200       2.98347100      -0.05156500
C       -3.56691500       0.53850500      -0.11766500
C       -3.03687800      -0.73433100      -0.13279200
C       -1.64041100      -0.91883000      -0.09829200
C       -4.72314700       3.17392200      -0.08803700
C       -5.03773600       0.72818300      -0.15412500
N       -5.53143900       2.03522700      -0.13722100
O       -5.26133100       4.29529300      -0.07673500
O       -5.84203300      -0.21964700      -0.19870900
H        0.62972700      -2.20233100      -0.06573200
H        3.07286500      -2.48716200      -0.00439800
H        1.49989900       4.56697900       0.11841200
H        3.93550500       4.22152900       0.17822500
H        6.75033500       0.44779700       0.16755800
H       -0.40199700       4.81321100       0.07071000
H       -2.84532000       5.09816700       0.00933800
H       -3.70773700      -1.61056600      -0.17200800
H       -1.27202900      -1.95588300      -0.11238600
H       -6.52266300       2.16338500      -0.16179200
C        4.25419286       1.77579558       6.49634281
C        3.73802654       2.89781841       5.77205599
C        3.07122444       3.96902205       6.50489351
C        4.13420442       1.67603688       7.91955855
C        3.46762176       2.74720737       8.65248330
C        2.95136914       3.86915413       7.92813097
C        2.30316361       4.91067882       8.64034454
C        2.17407996       4.83005796      10.05491099
C        1.78349376       6.03374847       7.93846862
C        1.10553092       7.12314023       8.68288655
C        3.32242610       2.70472451      10.03095330
C        2.67789597       3.74138389      10.73486552
C        2.55182343       5.07942517       5.85670739
C        1.90851869       6.11209506       6.56749838
C        1.49629304       5.91905935      10.79991807
N        1.00080203       7.00332012      10.07107137
O        0.63081315       8.12965417       8.12714264
O        1.35227519       5.90671809      12.03538301
C        3.88337513       2.94057476       4.39370081
C        4.52791047       1.90398491       3.68976940
C        4.90234056       0.73426717       5.78427498
C        5.03145015       0.81528273       4.36978664
C        5.42183472      -0.38895379       6.48604023
C        5.29650040      -0.46704335       7.85697890
C        4.65332671       0.56561340       8.56782196
C        5.70923437      -0.27374943       3.62469397
C        6.09972500      -1.47840251       5.74160236
N        6.20450450      -1.35818502       4.35345200
O        5.85342524      -0.26127574       2.38926041
O        6.57424429      -2.48509498       6.29717847
H        3.70529698       1.86016059      10.62387369
H        2.57623186       3.68160137      11.83274891
H        2.62365216       5.19341755       4.76434225
H        1.50404232       6.98516192       6.02577628
H        0.54391358       7.73744782      10.57293513
H        3.50064179       3.78529895       3.80090814
H        4.62981405       1.96377642       2.59185090
H        5.70076997      -1.34018392       8.39879910
H        4.58127402       0.45177981       9.66017410
H        6.66132623      -2.09226059       3.85145578
