80
Dimer: struct; Energy: -4906.06228 eV
C       -1.29972200       1.48833600      -0.03228100
C       -0.45010500       2.63965400       0.01843500
C        0.99654200       2.45238200       0.05441800
C       -0.76903400       0.15867800      -0.04877100
C        0.67752200      -0.02870400      -0.01297900
C        1.52709100       1.12265000       0.03785500
C        2.93347700       0.94084900       0.07277000
C        3.48023700      -0.37253000       0.05696900
C        3.79427800       2.07240500       0.12351100
C        5.26507800       1.88272800       0.16006300
C        1.24802600      -1.29258500      -0.02698300
C        2.64560500      -1.46904700       0.00777700
C        1.86805800       3.52983300       0.10418700
C        3.26457400       3.34539700       0.13880400
C        4.95087500      -0.56291500       0.09346700
N        5.75909100       0.57580800       0.14293500
O        6.06925500       2.83065500       0.20492200
O        5.48910000      -1.68427500       0.08194900
C       -1.02041300       3.90352800       0.03216900
C       -2.41794600       4.08003500      -0.00262400
C       -2.70602800       1.67000700      -0.06716000
C       -3.25245200       2.98347100      -0.05156500
C       -3.56691500       0.53850500      -0.11766500
C       -3.03687800      -0.73433100      -0.13279200
C       -1.64041100      -0.91883000      -0.09829200
C       -4.72314700       3.17392200      -0.08803700
C       -5.03773600       0.72818300      -0.15412500
N       -5.53143900       2.03522700      -0.13722100
O       -5.26133100       4.29529300      -0.07673500
O       -5.84203300      -0.21964700      -0.19870900
H        0.62972700      -2.20233100      -0.06573200
H        3.07286500      -2.48716200      -0.00439800
H        1.49989900       4.56697900       0.11841200
H        3.93550500       4.22152900       0.17822500
H        6.75033500       0.44779700       0.16755800
H       -0.40199700       4.81321100       0.07071000
H       -2.84532000       5.09816700       0.00933800
H       -3.70773700      -1.61056600      -0.17200800
H       -1.27202900      -1.95588300      -0.11238600
H       -6.52266300       2.16338500      -0.16179200
C        8.67491435      -0.38150621       7.59124117
C        8.27676657      -1.13382392       6.43995896
C        7.28120512      -0.57034248       5.53414486
C        8.12329253       0.90820765       7.87802261
C        7.12791384       1.47184044       6.97223197
C        6.72971544       0.71942605       5.82102468
C        5.76195334       1.26703508       4.94025620
C        5.20209146       2.54730382       5.20788873
C        5.35326916       0.53472451       3.79105193
C        4.34122889       1.10701549       2.86973571
C        6.55950682       2.71621904       7.19917131
C        5.59845217       3.25680672       6.32183837
C        6.85735159      -1.25320258       4.40411476
C        5.89577401      -0.70609501       3.53146719
C        4.19007929       3.12017231       4.28701538
N        3.81761683       2.36705874       3.17057374
O        3.94326581       0.51664938       1.84974952
O        3.66431419       4.23314518       4.46626248
C        8.84524605      -2.37802019       6.21274968
C        9.80630284      -2.91861808       7.09001105
C        9.64257633      -0.92899761       8.47203678
C       10.20238754      -2.20914970       8.20402165
C       10.05114979      -0.19686224       9.62139290
C        9.50833148       1.04384830       9.88074819
C        8.54686220       1.59104682       9.00810805
C       11.21442826      -2.78210225       9.12491499
C       11.06313547      -0.76920086      10.54276957
N       11.58673354      -2.02916014      10.24153860
O       11.74032913      -3.89497700       8.94552507
O       11.46098799      -0.17907356      11.56292949
H        6.83873728       3.32551766       8.07222255
H        5.16218324       4.25021611       6.52693514
H        7.25692837      -2.24648658       4.14888836
H        5.57636551      -1.27187190       2.63861534
H        3.13553224       2.75290991       2.54973780
H        8.56608391      -2.98713935       5.33954336
H       10.24280679      -3.91198083       6.88487903
H        9.82752391       1.60964284      10.77370407
H        8.14705887       2.58425880       9.26319652
H       12.26879082      -2.41515322      10.86231266
