80
Dimer: struct; Energy: -4906.06228 eV
C       -1.29972200       1.48833600      -0.03228100
C       -0.45010500       2.63965400       0.01843500
C        0.99654200       2.45238200       0.05441800
C       -0.76903400       0.15867800      -0.04877100
C        0.67752200      -0.02870400      -0.01297900
C        1.52709100       1.12265000       0.03785500
C        2.93347700       0.94084900       0.07277000
C        3.48023700      -0.37253000       0.05696900
C        3.79427800       2.07240500       0.12351100
C        5.26507800       1.88272800       0.16006300
C        1.24802600      -1.29258500      -0.02698300
C        2.64560500      -1.46904700       0.00777700
C        1.86805800       3.52983300       0.10418700
C        3.26457400       3.34539700       0.13880400
C        4.95087500      -0.56291500       0.09346700
N        5.75909100       0.57580800       0.14293500
O        6.06925500       2.83065500       0.20492200
O        5.48910000      -1.68427500       0.08194900
C       -1.02041300       3.90352800       0.03216900
C       -2.41794600       4.08003500      -0.00262400
C       -2.70602800       1.67000700      -0.06716000
C       -3.25245200       2.98347100      -0.05156500
C       -3.56691500       0.53850500      -0.11766500
C       -3.03687800      -0.73433100      -0.13279200
C       -1.64041100      -0.91883000      -0.09829200
C       -4.72314700       3.17392200      -0.08803700
C       -5.03773600       0.72818300      -0.15412500
N       -5.53143900       2.03522700      -0.13722100
O       -5.26133100       4.29529300      -0.07673500
O       -5.84203300      -0.21964700      -0.19870900
H        0.62972700      -2.20233100      -0.06573200
H        3.07286500      -2.48716200      -0.00439800
H        1.49989900       4.56697900       0.11841200
H        3.93550500       4.22152900       0.17822500
H        6.75033500       0.44779700       0.16755800
H       -0.40199700       4.81321100       0.07071000
H       -2.84532000       5.09816700       0.00933800
H       -3.70773700      -1.61056600      -0.17200800
H       -1.27202900      -1.95588300      -0.11238600
H       -6.52266300       2.16338500      -0.16179200
C        8.89417335       7.00317193       2.75785586
C        9.13326624       6.79085861       4.15346037
C        8.05202345       6.27763450       4.98812686
C        7.62369500       6.72571491       2.15886135
C        6.54249106       6.21234213       2.99334548
C        6.78160525       6.00015781       4.38897073
C        5.73065521       5.50116796       5.20057740
C        4.46092998       5.21917501       4.62400270
C        5.94864452       5.28375664       6.58952843
C        4.84986406       4.76196964       7.43863730
C        5.29146039       5.92561477       2.46820188
C        4.25001298       5.43001407       3.27773346
C        8.22547029       6.05269573       6.34541698
C        7.17917397       5.55696744       7.14852930
C        3.36177517       4.69736352       5.47248732
N        3.61930862       4.49865768       6.83136288
O        4.97783492       4.55116146       8.65784276
O        2.23073113       4.43190172       5.02803656
C       10.38424494       7.07726249       4.67866740
C       11.42570379       7.57281771       3.86919086
C        9.94496975       7.50215909       1.94621787
C       11.21459749       7.78384037       2.52302904
C        9.72700396       7.71982380       0.55730212
C        8.49631813       7.44665083      -0.00132875
C        7.45004430       6.95082918       0.80167946
C       12.31382778       8.30570038       1.67455956
C       10.82577142       8.24170394      -0.29179897
N       12.05627890       8.50469912       0.31571836
O       13.44491708       8.57094722       2.11899605
O       10.69786469       8.45281642      -1.51095216
H        5.06768984       6.07490127       1.40092815
H        3.26349594       5.21021507       2.83306502
H        9.18631908       6.25336999       6.84332728
H        7.34503584       5.38710756       8.22692958
H        2.87866522       4.14698084       7.40348919
H       10.60795722       6.92773660       5.74592638
H       12.41237005       7.79246241       4.31374715
H        8.33027650       7.61666899      -1.07970785
H        6.48907687       6.75019808       0.30401329
H       12.79699677       8.85642393      -0.25627807
