80
Dimer: struct; Energy: -4906.06228 eV
C       -1.29972200       1.48833600      -0.03228100
C       -0.45010500       2.63965400       0.01843500
C        0.99654200       2.45238200       0.05441800
C       -0.76903400       0.15867800      -0.04877100
C        0.67752200      -0.02870400      -0.01297900
C        1.52709100       1.12265000       0.03785500
C        2.93347700       0.94084900       0.07277000
C        3.48023700      -0.37253000       0.05696900
C        3.79427800       2.07240500       0.12351100
C        5.26507800       1.88272800       0.16006300
C        1.24802600      -1.29258500      -0.02698300
C        2.64560500      -1.46904700       0.00777700
C        1.86805800       3.52983300       0.10418700
C        3.26457400       3.34539700       0.13880400
C        4.95087500      -0.56291500       0.09346700
N        5.75909100       0.57580800       0.14293500
O        6.06925500       2.83065500       0.20492200
O        5.48910000      -1.68427500       0.08194900
C       -1.02041300       3.90352800       0.03216900
C       -2.41794600       4.08003500      -0.00262400
C       -2.70602800       1.67000700      -0.06716000
C       -3.25245200       2.98347100      -0.05156500
C       -3.56691500       0.53850500      -0.11766500
C       -3.03687800      -0.73433100      -0.13279200
C       -1.64041100      -0.91883000      -0.09829200
C       -4.72314700       3.17392200      -0.08803700
C       -5.03773600       0.72818300      -0.15412500
N       -5.53143900       2.03522700      -0.13722100
O       -5.26133100       4.29529300      -0.07673500
O       -5.84203300      -0.21964700      -0.19870900
H        0.62972700      -2.20233100      -0.06573200
H        3.07286500      -2.48716200      -0.00439800
H        1.49989900       4.56697900       0.11841200
H        3.93550500       4.22152900       0.17822500
H        6.75033500       0.44779700       0.16755800
H       -0.40199700       4.81321100       0.07071000
H       -2.84532000       5.09816700       0.00933800
H       -3.70773700      -1.61056600      -0.17200800
H       -1.27202900      -1.95588300      -0.11238600
H       -6.52266300       2.16338500      -0.16179200
C        4.92281355       9.02944506       3.76004911
C        5.18210484       9.70592653       4.99499654
C        5.24033848       8.93049173       6.22968793
C        4.71925880       7.61338148       3.70329106
C        4.77764835       6.83785919       4.93782465
C        5.03682745       7.51441032       6.17276286
C        5.09355752       6.76077830       7.37318475
C        4.89406406       5.35255514       7.33754124
C        5.34985867       7.41485531       8.61030438
C        5.40924086       6.62711453       9.86589359
C        4.58851855       5.46408279       4.94369107
C        4.64567701       4.71893462       6.13828777
C        5.48766498       9.53151584       7.45464400
C        5.54326118       8.77966880       8.64506704
C        4.95334170       4.56424225       8.59269207
N        5.20756440       5.24683267       9.78508101
O        5.62917918       7.14017707      10.97750168
O        4.78755790       3.33192316       8.62693347
C        5.37151432      11.07957439       4.98925904
C        5.31440127      11.82473849       3.79471631
C        4.86602944       9.78293217       2.55965326
C        5.06577136      11.19105898       2.59559933
C        4.60950119       9.12897415       1.32251700
C        4.41599835       7.76418307       1.28814448
C        4.47169154       7.01228349       2.47847868
C        5.00647649      11.97945882       1.34042787
C        4.55002757       9.91673808       0.06692456
N        4.75197555      11.29696688       0.14802889
O        5.17247689      13.21173900       1.30619190
O        4.32982970       9.40385306      -1.04470710
H        4.38714443       4.90724669       4.01588993
H        4.49126989       3.62585922       6.11375025
H        5.64925748      10.61684940       7.54040035
H        5.74197948       9.28424080       9.60695468
H        5.24755995       4.71577455      10.63121067
H        5.57308921      11.63627437       5.91710580
H        5.46900924      12.91784650       3.81912248
H        4.21706590       7.25951823       0.32631459
H        4.31001020       5.92695756       2.39298231
H        4.71196069      11.82815549      -0.69801526
