80
Dimer: struct; Energy: -4906.06228 eV
C       -1.29972200       1.48833600      -0.03228100
C       -0.45010500       2.63965400       0.01843500
C        0.99654200       2.45238200       0.05441800
C       -0.76903400       0.15867800      -0.04877100
C        0.67752200      -0.02870400      -0.01297900
C        1.52709100       1.12265000       0.03785500
C        2.93347700       0.94084900       0.07277000
C        3.48023700      -0.37253000       0.05696900
C        3.79427800       2.07240500       0.12351100
C        5.26507800       1.88272800       0.16006300
C        1.24802600      -1.29258500      -0.02698300
C        2.64560500      -1.46904700       0.00777700
C        1.86805800       3.52983300       0.10418700
C        3.26457400       3.34539700       0.13880400
C        4.95087500      -0.56291500       0.09346700
N        5.75909100       0.57580800       0.14293500
O        6.06925500       2.83065500       0.20492200
O        5.48910000      -1.68427500       0.08194900
C       -1.02041300       3.90352800       0.03216900
C       -2.41794600       4.08003500      -0.00262400
C       -2.70602800       1.67000700      -0.06716000
C       -3.25245200       2.98347100      -0.05156500
C       -3.56691500       0.53850500      -0.11766500
C       -3.03687800      -0.73433100      -0.13279200
C       -1.64041100      -0.91883000      -0.09829200
C       -4.72314700       3.17392200      -0.08803700
C       -5.03773600       0.72818300      -0.15412500
N       -5.53143900       2.03522700      -0.13722100
O       -5.26133100       4.29529300      -0.07673500
O       -5.84203300      -0.21964700      -0.19870900
H        0.62972700      -2.20233100      -0.06573200
H        3.07286500      -2.48716200      -0.00439800
H        1.49989900       4.56697900       0.11841200
H        3.93550500       4.22152900       0.17822500
H        6.75033500       0.44779700       0.16755800
H       -0.40199700       4.81321100       0.07071000
H       -2.84532000       5.09816700       0.00933800
H       -3.70773700      -1.61056600      -0.17200800
H       -1.27202900      -1.95588300      -0.11238600
H       -6.52266300       2.16338500      -0.16179200
C        7.41886917       9.46238052       0.60412289
C        7.55495946      10.44694361      -0.42644455
C        7.57321470      11.85922336      -0.05999429
C        7.30034501       9.82536568       1.98400906
C        7.31877120      11.23752895       2.35057793
C        7.45474642      12.22205692       1.31995529
C        7.47259135      13.59505904       1.67595946
C        7.35623498      13.97598284       3.04179943
C        7.60682763      14.58829996       0.66629362
C        7.62550764      16.02424436       1.03815490
C        7.20796629      11.64809675       3.67051068
C        7.22615156      13.01301518       4.02014065
C        7.70234825      12.85644071      -1.01487639
C        7.71964081      14.21932876      -0.65751235
C        7.37487307      15.41167719       3.41434344
N        7.50845524      16.35362840       2.39099893
O        7.74004350      16.93872041       0.20275459
O        7.27736782      15.80775082       4.58945427
C        7.66604151      10.03655066      -1.74631414
C        7.64789690       8.67168099      -2.09597873
C        7.40097686       8.08944429       0.24825292
C        7.51756567       7.70884950      -1.11760386
C        7.26650876       7.09614084       1.25782736
C        7.15356790       7.46547205       2.58150343
C        7.17096608       8.82829595       2.93893667
C        7.49890688       6.27310850      -1.49022321
C        7.24773658       5.66018204       0.88595182
N        7.36504265       5.33110478      -0.46694871
O        7.59662972       5.87706208      -2.66531476
O        7.13293370       4.74561767       1.72120952
H        7.10193632      10.92274014       4.49151516
H        7.13606216      13.31169277       5.07935408
H        7.79588095      12.61873861      -2.08546715
H        7.82367951      14.99277017      -1.43871273
H        7.52103381      17.32135908       2.64179143
H        7.77227610      10.76200131      -2.56721759
H        7.73819342       8.37287807      -3.15519907
H        7.04931723       6.69210340       3.36279095
H        7.07732681       9.06623910       4.00944945
H        7.35243164       4.36341528      -0.71788941
