80
Dimer: struct; Energy: -4906.06228 eV
C       -1.29972200       1.48833600      -0.03228100
C       -0.45010500       2.63965400       0.01843500
C        0.99654200       2.45238200       0.05441800
C       -0.76903400       0.15867800      -0.04877100
C        0.67752200      -0.02870400      -0.01297900
C        1.52709100       1.12265000       0.03785500
C        2.93347700       0.94084900       0.07277000
C        3.48023700      -0.37253000       0.05696900
C        3.79427800       2.07240500       0.12351100
C        5.26507800       1.88272800       0.16006300
C        1.24802600      -1.29258500      -0.02698300
C        2.64560500      -1.46904700       0.00777700
C        1.86805800       3.52983300       0.10418700
C        3.26457400       3.34539700       0.13880400
C        4.95087500      -0.56291500       0.09346700
N        5.75909100       0.57580800       0.14293500
O        6.06925500       2.83065500       0.20492200
O        5.48910000      -1.68427500       0.08194900
C       -1.02041300       3.90352800       0.03216900
C       -2.41794600       4.08003500      -0.00262400
C       -2.70602800       1.67000700      -0.06716000
C       -3.25245200       2.98347100      -0.05156500
C       -3.56691500       0.53850500      -0.11766500
C       -3.03687800      -0.73433100      -0.13279200
C       -1.64041100      -0.91883000      -0.09829200
C       -4.72314700       3.17392200      -0.08803700
C       -5.03773600       0.72818300      -0.15412500
N       -5.53143900       2.03522700      -0.13722100
O       -5.26133100       4.29529300      -0.07673500
O       -5.84203300      -0.21964700      -0.19870900
H        0.62972700      -2.20233100      -0.06573200
H        3.07286500      -2.48716200      -0.00439800
H        1.49989900       4.56697900       0.11841200
H        3.93550500       4.22152900       0.17822500
H        6.75033500       0.44779700       0.16755800
H       -0.40199700       4.81321100       0.07071000
H       -2.84532000       5.09816700       0.00933800
H       -3.70773700      -1.61056600      -0.17200800
H       -1.27202900      -1.95588300      -0.11238600
H       -6.52266300       2.16338500      -0.16179200
C        4.66228376       6.89948230       5.64324732
C        4.63655494       5.80023790       4.72621184
C        4.53226722       4.44224494       5.24978830
C        4.58840271       6.70293850       7.05951149
C        4.48393311       5.34507726       7.58316813
C        4.45832654       4.24585985       6.66608962
C        4.35687619       2.92560533       7.17484109
C        4.28221283       2.70959605       8.57909390
C        4.33000093       1.82022664       6.27963851
C        4.22394390       0.43939271       6.81125455
C        4.40901202       5.09420678       8.94497463
C        4.30828055       3.78121837       9.44646119
C        4.50313290       3.33941780       4.40964471
C        4.40232298       2.02936068       4.91862370
C        4.17611423       1.32909159       9.11135813
N        4.15306632       0.27298687       8.19677524
O        4.19577828      -0.56715657       6.08095063
O        4.10745990       1.07542746      10.32717397
C        4.71118839       6.05094542       3.36445088
C        4.81188281       7.36388172       2.86293053
C        4.76376161       8.21968695       5.13464197
C        4.83818801       8.43537015       3.73038005
C        4.79088031       9.32511421       6.02977832
C        4.71869220       9.11560582       7.39072455
C        4.61777023       7.80562182       7.89974999
C        4.94431829       9.81591169       3.19803899
C        4.89703094      10.70595972       5.49815889
N        4.96765633      10.87205705       4.11258458
O        5.01275374      10.06955351       1.98221619
O        4.92548229      11.71257666       6.22834787
H        4.42555724       5.91137851       9.68212424
H        4.25014690       3.61045785      10.53582744
H        4.55771175       3.44832134       3.31576337
H        4.38122032       1.16919367       4.22654199
H        4.08157732      -0.65758128       8.55523028
H        4.69442458       5.23369468       2.62738432
H        4.86981550       7.53476814       1.77351507
H        4.73999147       9.97570868       8.08292891
H        4.56330076       7.69646848       8.99359710
H        5.03919587      11.80256621       3.75399287
