80
Dimer: struct; Energy: -4906.06228 eV
C       -1.29972200       1.48833600      -0.03228100
C       -0.45010500       2.63965400       0.01843500
C        0.99654200       2.45238200       0.05441800
C       -0.76903400       0.15867800      -0.04877100
C        0.67752200      -0.02870400      -0.01297900
C        1.52709100       1.12265000       0.03785500
C        2.93347700       0.94084900       0.07277000
C        3.48023700      -0.37253000       0.05696900
C        3.79427800       2.07240500       0.12351100
C        5.26507800       1.88272800       0.16006300
C        1.24802600      -1.29258500      -0.02698300
C        2.64560500      -1.46904700       0.00777700
C        1.86805800       3.52983300       0.10418700
C        3.26457400       3.34539700       0.13880400
C        4.95087500      -0.56291500       0.09346700
N        5.75909100       0.57580800       0.14293500
O        6.06925500       2.83065500       0.20492200
O        5.48910000      -1.68427500       0.08194900
C       -1.02041300       3.90352800       0.03216900
C       -2.41794600       4.08003500      -0.00262400
C       -2.70602800       1.67000700      -0.06716000
C       -3.25245200       2.98347100      -0.05156500
C       -3.56691500       0.53850500      -0.11766500
C       -3.03687800      -0.73433100      -0.13279200
C       -1.64041100      -0.91883000      -0.09829200
C       -4.72314700       3.17392200      -0.08803700
C       -5.03773600       0.72818300      -0.15412500
N       -5.53143900       2.03522700      -0.13722100
O       -5.26133100       4.29529300      -0.07673500
O       -5.84203300      -0.21964700      -0.19870900
H        0.62972700      -2.20233100      -0.06573200
H        3.07286500      -2.48716200      -0.00439800
H        1.49989900       4.56697900       0.11841200
H        3.93550500       4.22152900       0.17822500
H        6.75033500       0.44779700       0.16755800
H       -0.40199700       4.81321100       0.07071000
H       -2.84532000       5.09816700       0.00933800
H       -3.70773700      -1.61056600      -0.17200800
H       -1.27202900      -1.95588300      -0.11238600
H       -6.52266300       2.16338500      -0.16179200
C        2.27088890       9.70832346       3.73266534
C        1.37869187       8.72398558       3.19879484
C       -0.03281639       8.77307552       3.56538414
C        1.81627322      10.73929419       4.61602031
C        0.40483111      10.78859266       4.98251475
C       -0.48730225       9.80415668       4.44870628
C       -1.85955167       9.85171676       4.80488295
C       -2.33079101      10.86857172       5.68129612
C       -2.76171585       8.88236169       4.28486128
C       -4.19683415       8.93172135       4.65710469
C       -0.09221453      11.76404029       5.83369843
C       -1.45608664      11.80794973       6.18512266
C       -0.94279338       7.84643209       3.07938868
C       -2.30521036       7.89677616       3.43541868
C       -3.76571978      10.91853156       6.05390597
N       -4.61659017       9.94708689       5.52036584
O       -5.03417795       8.11383357       4.23616110
O       -4.23819742      11.78173035       6.81477377
C        1.87550279       7.74869839       2.34743643
C        3.23932200       7.70477122       1.99596619
C        3.64307194       9.66083966       3.37660855
C        4.11394340       8.64402597       2.50003565
C        4.54535455      10.63001220       3.89676685
C        4.08853783      11.61535540       4.74629424
C        2.72615449      11.66582339       5.10226450
C        5.54892888       8.59400116       2.12739672
C        5.98050773      10.58059654       3.52459091
N        6.39991664       9.56525390       2.66112817
O        6.02133208       7.73092376       1.36636106
O        6.81800722      11.39824579       3.94566978
H        0.56065067      12.53822093       6.26479504
H       -1.82474646      12.59597679       6.86509381
H       -0.63314340       7.03900591       2.39851051
H       -3.00808721       7.14591494       3.03357135
H       -5.58377867       9.98050036       5.77133941
H        1.22249339       6.97468860       1.91623522
H        3.60806044       6.91686719       1.31580181
H        4.79138088      12.36616855       5.14837474
H        2.41629977      12.47308419       5.78322185
H        7.36708555       9.53169156       2.41010803
