80
Dimer: struct; Energy: -4906.06228 eV
C       -1.29972200       1.48833600      -0.03228100
C       -0.45010500       2.63965400       0.01843500
C        0.99654200       2.45238200       0.05441800
C       -0.76903400       0.15867800      -0.04877100
C        0.67752200      -0.02870400      -0.01297900
C        1.52709100       1.12265000       0.03785500
C        2.93347700       0.94084900       0.07277000
C        3.48023700      -0.37253000       0.05696900
C        3.79427800       2.07240500       0.12351100
C        5.26507800       1.88272800       0.16006300
C        1.24802600      -1.29258500      -0.02698300
C        2.64560500      -1.46904700       0.00777700
C        1.86805800       3.52983300       0.10418700
C        3.26457400       3.34539700       0.13880400
C        4.95087500      -0.56291500       0.09346700
N        5.75909100       0.57580800       0.14293500
O        6.06925500       2.83065500       0.20492200
O        5.48910000      -1.68427500       0.08194900
C       -1.02041300       3.90352800       0.03216900
C       -2.41794600       4.08003500      -0.00262400
C       -2.70602800       1.67000700      -0.06716000
C       -3.25245200       2.98347100      -0.05156500
C       -3.56691500       0.53850500      -0.11766500
C       -3.03687800      -0.73433100      -0.13279200
C       -1.64041100      -0.91883000      -0.09829200
C       -4.72314700       3.17392200      -0.08803700
C       -5.03773600       0.72818300      -0.15412500
N       -5.53143900       2.03522700      -0.13722100
O       -5.26133100       4.29529300      -0.07673500
O       -5.84203300      -0.21964700      -0.19870900
H        0.62972700      -2.20233100      -0.06573200
H        3.07286500      -2.48716200      -0.00439800
H        1.49989900       4.56697900       0.11841200
H        3.93550500       4.22152900       0.17822500
H        6.75033500       0.44779700       0.16755800
H       -0.40199700       4.81321100       0.07071000
H       -2.84532000       5.09816700       0.00933800
H       -3.70773700      -1.61056600      -0.17200800
H       -1.27202900      -1.95588300      -0.11238600
H       -6.52266300       2.16338500      -0.16179200
C        1.65745524       0.62891856       4.27810601
C        0.31730172       1.00796532       4.61016985
C        0.08082412       2.30775250       5.22967351
C        2.77163942       1.48999241       4.53702203
C        2.53527829       2.78980828       5.15631959
C        1.19511342       3.16875608       5.48847062
C        0.96496472       4.43231916       6.09066009
C        2.05902502       5.30229504       6.35586679
C       -0.35956083       4.82692529       6.42813611
C       -0.60067771       6.14821284       7.05792014
C        3.57538567       3.66510963       5.43034565
C        3.34267489       4.91949395       6.02862638
C       -1.19524437       2.72804985       5.57306409
C       -1.42005016       3.98392160       6.17116141
C        1.81862635       6.62367212       6.98556971
N        0.50235609       6.97091147       7.30054226
O       -1.73407653       6.55012651       7.37596274
O        2.73225581       7.42780097       7.24232849
C       -0.72287651       0.13294312       4.33597520
C       -0.49022451      -1.12140145       3.73768053
C        1.88770766      -0.63455071       3.67598752
C        0.79345324      -1.50417808       3.41072245
C        3.21222480      -1.02934076       3.33869071
C        4.27248191      -0.18615894       3.59594313
C        4.04774134       1.06973497       4.19391668
C        1.03380741      -2.82563452       2.78101749
C        3.45335391      -2.35068317       2.70898248
N        2.35009489      -3.17306033       2.46627331
O        0.12013889      -3.62964571       2.52407681
O        4.58671613      -2.75283843       2.39113920
H        4.61912100       3.41122801       5.19035894
H        4.18979482       5.59683354       6.23564422
H       -2.07744068       2.09569962       5.39064125
H       -2.44686463       4.29326170       6.43435420
H        0.34002501       7.86144884       7.72498258
H       -1.76660162       0.38702723       4.57582114
H       -1.33734422      -1.79876120       3.53042135
H        5.29938973      -0.49548686       3.33297159
H        4.92979462       1.70220005       4.37654420
H        2.51228395      -4.06364425       2.04188172
