80
Dimer: struct; Energy: -4906.06228 eV
C       -1.29972200       1.48833600      -0.03228100
C       -0.45010500       2.63965400       0.01843500
C        0.99654200       2.45238200       0.05441800
C       -0.76903400       0.15867800      -0.04877100
C        0.67752200      -0.02870400      -0.01297900
C        1.52709100       1.12265000       0.03785500
C        2.93347700       0.94084900       0.07277000
C        3.48023700      -0.37253000       0.05696900
C        3.79427800       2.07240500       0.12351100
C        5.26507800       1.88272800       0.16006300
C        1.24802600      -1.29258500      -0.02698300
C        2.64560500      -1.46904700       0.00777700
C        1.86805800       3.52983300       0.10418700
C        3.26457400       3.34539700       0.13880400
C        4.95087500      -0.56291500       0.09346700
N        5.75909100       0.57580800       0.14293500
O        6.06925500       2.83065500       0.20492200
O        5.48910000      -1.68427500       0.08194900
C       -1.02041300       3.90352800       0.03216900
C       -2.41794600       4.08003500      -0.00262400
C       -2.70602800       1.67000700      -0.06716000
C       -3.25245200       2.98347100      -0.05156500
C       -3.56691500       0.53850500      -0.11766500
C       -3.03687800      -0.73433100      -0.13279200
C       -1.64041100      -0.91883000      -0.09829200
C       -4.72314700       3.17392200      -0.08803700
C       -5.03773600       0.72818300      -0.15412500
N       -5.53143900       2.03522700      -0.13722100
O       -5.26133100       4.29529300      -0.07673500
O       -5.84203300      -0.21964700      -0.19870900
H        0.62972700      -2.20233100      -0.06573200
H        3.07286500      -2.48716200      -0.00439800
H        1.49989900       4.56697900       0.11841200
H        3.93550500       4.22152900       0.17822500
H        6.75033500       0.44779700       0.16755800
H       -0.40199700       4.81321100       0.07071000
H       -2.84532000       5.09816700       0.00933800
H       -3.70773700      -1.61056600      -0.17200800
H       -1.27202900      -1.95588300      -0.11238600
H       -6.52266300       2.16338500      -0.16179200
C       13.39124550       7.17626959       1.23868425
C       12.99700802       6.20560011       0.26280933
C       12.05086286       5.16179752       0.64286011
C       12.88268567       7.15097756       2.57682449
C       11.93644602       6.10738950       2.95691898
C       11.54233198       5.13667332       1.98103383
C       10.62249763       4.12189156       2.35024243
C       10.10567086       4.07988416       3.67511451
C       10.21873282       3.14823698       1.39476206
C        9.25684706       2.08683254       1.78045944
C       11.41079887       6.03335967       4.23804379
C       10.49723632       5.02376302       4.60093801
C       11.63334125       4.19536118      -0.25968865
C       10.71949060       3.18878624       0.11065684
C        9.14377327       3.01882353       4.06145382
N        8.77446623       2.08299240       3.09182365
O        8.86567887       1.20817735       0.99164319
O        8.65697678       2.92882981       5.20259245
C       13.52232433       6.27965266      -1.01835277
C       14.43583700       7.28922341      -1.38129250
C       14.31103963       8.19100491       0.86961995
C       14.82750123       8.23286715      -0.45534233
C       14.71504276       9.16456351       1.82509839
C       14.21420664       9.12362338       3.10914147
C       13.30029416       8.11717367       3.47951043
C       15.78946299       9.29393626      -0.84174560
C       15.67701096      10.22592665       1.43942111
N       16.15903464      10.22964147       0.12792129
O       16.27607287       9.38402951      -1.98294528
O       16.06847364      11.10447550       2.22819992
H       11.68838439       6.76023229       5.01652654
H       10.09440338       4.98862072       5.62843406
H       12.00090144       4.18032277      -1.29703554
H       10.40404578       2.43154253      -0.62852260
H        8.12617637       1.36771497       3.35193175
H       13.24449994       5.55283823      -1.79681364
H       14.83858824       7.32457664      -2.40887509
H       14.52974533       9.88071535       3.84848209
H       12.93269501       8.13194122       4.51683181
H       16.80736630      10.94483254      -0.13231133
