80
Dimer: struct; Energy: -4906.06228 eV
C       -1.29972200       1.48833600      -0.03228100
C       -0.45010500       2.63965400       0.01843500
C        0.99654200       2.45238200       0.05441800
C       -0.76903400       0.15867800      -0.04877100
C        0.67752200      -0.02870400      -0.01297900
C        1.52709100       1.12265000       0.03785500
C        2.93347700       0.94084900       0.07277000
C        3.48023700      -0.37253000       0.05696900
C        3.79427800       2.07240500       0.12351100
C        5.26507800       1.88272800       0.16006300
C        1.24802600      -1.29258500      -0.02698300
C        2.64560500      -1.46904700       0.00777700
C        1.86805800       3.52983300       0.10418700
C        3.26457400       3.34539700       0.13880400
C        4.95087500      -0.56291500       0.09346700
N        5.75909100       0.57580800       0.14293500
O        6.06925500       2.83065500       0.20492200
O        5.48910000      -1.68427500       0.08194900
C       -1.02041300       3.90352800       0.03216900
C       -2.41794600       4.08003500      -0.00262400
C       -2.70602800       1.67000700      -0.06716000
C       -3.25245200       2.98347100      -0.05156500
C       -3.56691500       0.53850500      -0.11766500
C       -3.03687800      -0.73433100      -0.13279200
C       -1.64041100      -0.91883000      -0.09829200
C       -4.72314700       3.17392200      -0.08803700
C       -5.03773600       0.72818300      -0.15412500
N       -5.53143900       2.03522700      -0.13722100
O       -5.26133100       4.29529300      -0.07673500
O       -5.84203300      -0.21964700      -0.19870900
H        0.62972700      -2.20233100      -0.06573200
H        3.07286500      -2.48716200      -0.00439800
H        1.49989900       4.56697900       0.11841200
H        3.93550500       4.22152900       0.17822500
H        6.75033500       0.44779700       0.16755800
H       -0.40199700       4.81321100       0.07071000
H       -2.84532000       5.09816700       0.00933800
H       -3.70773700      -1.61056600      -0.17200800
H       -1.27202900      -1.95588300      -0.11238600
H       -6.52266300       2.16338500      -0.16179200
C        7.02295391       8.11234909       3.86856170
C        6.92751192       9.52364457       4.09012482
C        6.90957965      10.02684287       5.45965869
C        7.10137764       7.18148398       4.95356489
C        7.08364040       7.68454954       6.32306398
C        6.98807862       9.09585043       6.54457102
C        6.97070056       9.58527625       7.87586836
C        7.04783035       8.67624777       8.96760037
C        6.87617665      10.98425463       8.11648575
C        6.85794505      11.49649439       9.50855044
C        7.15696337       6.83028676       7.41298368
C        7.13944619       7.32036483       8.73400253
C        6.81847392      11.38291337       5.73477736
C        6.80144237      11.86544341       7.05853965
C        7.02968267       9.18778750      10.35984763
N        6.93575987      10.56879211      10.55051754
O        6.77697306      12.70685145       9.78379197
O        7.09404852       8.44467495      11.35529118
C        6.85446032      10.37800162       3.00037494
C        6.87200880       9.88798589       1.67937516
C        7.04030226       7.62284394       2.53739634
C        6.96337681       8.53211074       1.44591733
C        7.13458745       6.22386509       2.29668397
C        7.20915130       5.34296281       3.35485736
C        7.19223907       5.82541854       4.67860230
C        6.98149522       8.02060211       0.05358971
C        7.15272695       5.71161320       0.90460264
N        7.07513256       6.63957692      -0.13715303
O        6.91734496       8.76375112      -0.94182828
O        7.23341914       4.50127659       0.62921714
H        7.23141440       5.73964548       7.28495411
H        7.19918573       6.61727861       9.58333077
H        6.75625138      12.13016185       4.92907066
H        6.72815167      12.95068414       7.24877828
H        6.92349171      10.91385796      11.48878021
H        6.78022064      11.46864876       3.12853185
H        6.81248054      10.59104195       0.82993243
H        7.28224221       4.25765691       3.16473558
H        7.25432816       5.07835105       5.48446703
H        7.08734246       6.29464865      -1.07546461
