80
Dimer: struct; Energy: -4906.06228 eV
C       -1.29972200       1.48833600      -0.03228100
C       -0.45010500       2.63965400       0.01843500
C        0.99654200       2.45238200       0.05441800
C       -0.76903400       0.15867800      -0.04877100
C        0.67752200      -0.02870400      -0.01297900
C        1.52709100       1.12265000       0.03785500
C        2.93347700       0.94084900       0.07277000
C        3.48023700      -0.37253000       0.05696900
C        3.79427800       2.07240500       0.12351100
C        5.26507800       1.88272800       0.16006300
C        1.24802600      -1.29258500      -0.02698300
C        2.64560500      -1.46904700       0.00777700
C        1.86805800       3.52983300       0.10418700
C        3.26457400       3.34539700       0.13880400
C        4.95087500      -0.56291500       0.09346700
N        5.75909100       0.57580800       0.14293500
O        6.06925500       2.83065500       0.20492200
O        5.48910000      -1.68427500       0.08194900
C       -1.02041300       3.90352800       0.03216900
C       -2.41794600       4.08003500      -0.00262400
C       -2.70602800       1.67000700      -0.06716000
C       -3.25245200       2.98347100      -0.05156500
C       -3.56691500       0.53850500      -0.11766500
C       -3.03687800      -0.73433100      -0.13279200
C       -1.64041100      -0.91883000      -0.09829200
C       -4.72314700       3.17392200      -0.08803700
C       -5.03773600       0.72818300      -0.15412500
N       -5.53143900       2.03522700      -0.13722100
O       -5.26133100       4.29529300      -0.07673500
O       -5.84203300      -0.21964700      -0.19870900
H        0.62972700      -2.20233100      -0.06573200
H        3.07286500      -2.48716200      -0.00439800
H        1.49989900       4.56697900       0.11841200
H        3.93550500       4.22152900       0.17822500
H        6.75033500       0.44779700       0.16755800
H       -0.40199700       4.81321100       0.07071000
H       -2.84532000       5.09816700       0.00933800
H       -3.70773700      -1.61056600      -0.17200800
H       -1.27202900      -1.95588300      -0.11238600
H       -6.52266300       2.16338500      -0.16179200
C        5.47431105       7.61036611       7.17083057
C        5.44053128       6.54292705       6.21721269
C        5.39188017       6.86414989       4.79467901
C        5.46178428       8.98395684       6.76711824
C        5.41332257       9.30528444       5.34468463
C        5.37942582       8.23780271       4.39111168
C        5.33220026       8.54982914       3.00814331
C        5.31919854       9.90870768       2.58690627
C        5.29794365       7.50310851       2.04524435
C        5.24852597       7.82897673       0.59889244
C        5.39933193      10.61708119       4.89517417
C        5.35241963      10.92297117       3.52047249
C        5.35748289       5.87230871       3.82618241
C        5.31056615       6.18603930       2.45328626
C        5.26982218      10.23526653       1.14078181
N        5.23730600       9.17651081       0.22955775
O        5.21695668       6.95985324      -0.29043670
O        5.25630185      11.40212396       0.71005217
C        5.45479050       5.23116098       6.66652748
C        5.50173637       4.92523117       8.04117899
C        5.52149761       7.29847586       8.55373164
C        5.53470482       5.93954828       8.97462529
C        5.55551985       8.34513000       9.51671220
C        5.54273231       9.66207184       9.10832487
C        5.49593164       9.97586287       7.73548289
C        5.58405682       5.61291787      10.42080042
C        5.60484570       8.01925700      10.96308533
N        5.61629007       6.67163297      11.33209877
O        5.59779306       4.44605762      10.85148726
O        5.63614266       8.88826724      11.85252606
H        5.42436643      11.46549142       5.59589258
H        5.34224574      11.97667563       3.19053174
H        5.36560489       4.80515676       4.09550745
H        5.28388079       5.37600596       1.70332387
H        5.20400874       9.39630713      -0.74519280
H        5.42996201       4.38282855       5.96569757
H        5.51212427       3.87150333       8.37123070
H        5.56921027      10.47221039       9.85822614
H        5.48767906      11.04294054       7.46592770
H        5.64953806       6.45169117      12.30681586
