80
Dimer: struct; Energy: -4906.06228 eV
C       -1.29972200       1.48833600      -0.03228100
C       -0.45010500       2.63965400       0.01843500
C        0.99654200       2.45238200       0.05441800
C       -0.76903400       0.15867800      -0.04877100
C        0.67752200      -0.02870400      -0.01297900
C        1.52709100       1.12265000       0.03785500
C        2.93347700       0.94084900       0.07277000
C        3.48023700      -0.37253000       0.05696900
C        3.79427800       2.07240500       0.12351100
C        5.26507800       1.88272800       0.16006300
C        1.24802600      -1.29258500      -0.02698300
C        2.64560500      -1.46904700       0.00777700
C        1.86805800       3.52983300       0.10418700
C        3.26457400       3.34539700       0.13880400
C        4.95087500      -0.56291500       0.09346700
N        5.75909100       0.57580800       0.14293500
O        6.06925500       2.83065500       0.20492200
O        5.48910000      -1.68427500       0.08194900
C       -1.02041300       3.90352800       0.03216900
C       -2.41794600       4.08003500      -0.00262400
C       -2.70602800       1.67000700      -0.06716000
C       -3.25245200       2.98347100      -0.05156500
C       -3.56691500       0.53850500      -0.11766500
C       -3.03687800      -0.73433100      -0.13279200
C       -1.64041100      -0.91883000      -0.09829200
C       -4.72314700       3.17392200      -0.08803700
C       -5.03773600       0.72818300      -0.15412500
N       -5.53143900       2.03522700      -0.13722100
O       -5.26133100       4.29529300      -0.07673500
O       -5.84203300      -0.21964700      -0.19870900
H        0.62972700      -2.20233100      -0.06573200
H        3.07286500      -2.48716200      -0.00439800
H        1.49989900       4.56697900       0.11841200
H        3.93550500       4.22152900       0.17822500
H        6.75033500       0.44779700       0.16755800
H       -0.40199700       4.81321100       0.07071000
H       -2.84532000       5.09816700       0.00933800
H       -3.70773700      -1.61056600      -0.17200800
H       -1.27202900      -1.95588300      -0.11238600
H       -6.52266300       2.16338500      -0.16179200
C        3.42034951       3.45681819       9.52113913
C        3.46103148       2.03509616       9.35680492
C        3.62933804       1.48055991       8.01765759
C        3.54035362       4.34914134       8.40792285
C        3.70883926       3.79475488       7.06882406
C        3.74939695       2.37301957       6.90453343
C        3.91307943       1.83369476       5.60279266
C        4.03424674       2.70390999       4.48377322
C        3.95573251       0.42359161       5.41904877
C        4.12686402      -0.14082782       4.05790559
C        3.83037105       4.61018615       5.95375995
C        3.99286936       4.07059022       4.66224739
C        3.67567083       0.11216015       7.79799164
C        3.83834656      -0.41998312       6.50345232
C        4.20542558       2.14018772       3.12242474
N        4.24191792       0.74992782       2.98753225
O        4.17173012      -1.36328687       3.83238515
O        4.31677862       2.84777392       2.10547375
C        3.33979425       1.21958723      10.47173274
C        3.17733394       1.75912299      11.76323248
C        3.25664540       3.99621450      10.82274201
C        3.13572648       3.12576944      11.94154229
C        3.21374554       5.40630178      11.00655556
C        3.33100950       6.24956837       9.92192191
C        3.49379576       5.71750972       8.62740871
C        2.96451253       3.68946135      13.30296904
C        3.04252000       5.97072624      12.36770520
N        2.92772784       5.07972065      13.43790342
O        2.85337877       2.98185588      14.31991862
O        2.99736283       7.19314701      12.59334073
H        3.80423369       5.70730417       6.03791346
H        4.08719551       4.74347632       3.79185417
H        3.58703561      -0.60656444       8.62684265
H        3.87185162      -1.51398675       6.35735935
H        4.35726697       0.36969335       2.07010426
H        3.36615515       0.12247620      10.38747482
H        3.08320257       1.08628891      12.63375989
H        3.29731375       7.34361578      10.06787510
H        3.58232991       6.43603694       7.79839531
H        2.81232671       5.45981512      14.35538039
