80
Dimer: struct; Energy: -4906.06228 eV
C       -1.29972200       1.48833600      -0.03228100
C       -0.45010500       2.63965400       0.01843500
C        0.99654200       2.45238200       0.05441800
C       -0.76903400       0.15867800      -0.04877100
C        0.67752200      -0.02870400      -0.01297900
C        1.52709100       1.12265000       0.03785500
C        2.93347700       0.94084900       0.07277000
C        3.48023700      -0.37253000       0.05696900
C        3.79427800       2.07240500       0.12351100
C        5.26507800       1.88272800       0.16006300
C        1.24802600      -1.29258500      -0.02698300
C        2.64560500      -1.46904700       0.00777700
C        1.86805800       3.52983300       0.10418700
C        3.26457400       3.34539700       0.13880400
C        4.95087500      -0.56291500       0.09346700
N        5.75909100       0.57580800       0.14293500
O        6.06925500       2.83065500       0.20492200
O        5.48910000      -1.68427500       0.08194900
C       -1.02041300       3.90352800       0.03216900
C       -2.41794600       4.08003500      -0.00262400
C       -2.70602800       1.67000700      -0.06716000
C       -3.25245200       2.98347100      -0.05156500
C       -3.56691500       0.53850500      -0.11766500
C       -3.03687800      -0.73433100      -0.13279200
C       -1.64041100      -0.91883000      -0.09829200
C       -4.72314700       3.17392200      -0.08803700
C       -5.03773600       0.72818300      -0.15412500
N       -5.53143900       2.03522700      -0.13722100
O       -5.26133100       4.29529300      -0.07673500
O       -5.84203300      -0.21964700      -0.19870900
H        0.62972700      -2.20233100      -0.06573200
H        3.07286500      -2.48716200      -0.00439800
H        1.49989900       4.56697900       0.11841200
H        3.93550500       4.22152900       0.17822500
H        6.75033500       0.44779700       0.16755800
H       -0.40199700       4.81321100       0.07071000
H       -2.84532000       5.09816700       0.00933800
H       -3.70773700      -1.61056600      -0.17200800
H       -1.27202900      -1.95588300      -0.11238600
H       -6.52266300       2.16338500      -0.16179200
C        6.18411354       7.97438756       0.66721802
C        5.68119844       9.18974347       1.23285104
C        5.50593099       9.27973745       2.67865031
C        6.51979845       6.84525195       1.48101191
C        6.34475646       6.93518697       2.92676062
C        5.84172565       8.15052978       3.49233067
C        5.67132254       8.23828103       4.89783939
C        5.99937186       7.12711148       5.72357933
C        5.17269338       9.43739715       5.47875374
C        4.99431690       9.52957424       6.94853306
C        6.65328290       5.87395661       3.76441667
C        6.48264781       5.96504091       5.16018222
C        5.02272334      10.43093238       3.28212222
C        4.85471966      10.51445098       4.67864337
C        5.82127726       7.21861705       7.19336289
N        5.32887983       8.41478508       7.72164034
O        4.56309934      10.54916532       7.51577554
O        6.08980199       6.28287039       7.96766241
C        5.37290281      10.25109024       0.39540602
C        5.54354960      10.16006697      -1.00032253
C        6.35451008       7.88651934      -0.73818642
C        6.02658490       8.99789714      -1.56360422
C        6.85291178       6.68736219      -1.31921297
C        7.17063726       5.61046406      -0.51882527
C        7.00276948       5.69395190       0.87767049
C        6.20464318       8.90643380      -3.03345975
C        7.03120380       6.59515287      -2.78901938
N        6.69677407       7.71018728      -3.56183723
O        5.93631394       9.84226696      -3.80770673
O        7.46214895       5.57554188      -3.35641943
H        7.04221688       4.92328799       3.36895180
H        6.73641354       5.10430355       5.80360404
H        4.75337940      11.31995261       2.69177308
H        4.46791612      11.44369517       5.13273362
H        5.20872639       8.47674551       8.71223705
H        4.98416826      11.20178855       0.79101328
H        5.28999580      11.02086596      -1.64384406
H        7.55726751       4.68107289      -0.97283689
H        7.27193180       4.80501900       1.46820653
H        6.81683225       7.64835074      -4.55245093
