80
Dimer: struct; Energy: -4906.06228 eV
C       -1.29972200       1.48833600      -0.03228100
C       -0.45010500       2.63965400       0.01843500
C        0.99654200       2.45238200       0.05441800
C       -0.76903400       0.15867800      -0.04877100
C        0.67752200      -0.02870400      -0.01297900
C        1.52709100       1.12265000       0.03785500
C        2.93347700       0.94084900       0.07277000
C        3.48023700      -0.37253000       0.05696900
C        3.79427800       2.07240500       0.12351100
C        5.26507800       1.88272800       0.16006300
C        1.24802600      -1.29258500      -0.02698300
C        2.64560500      -1.46904700       0.00777700
C        1.86805800       3.52983300       0.10418700
C        3.26457400       3.34539700       0.13880400
C        4.95087500      -0.56291500       0.09346700
N        5.75909100       0.57580800       0.14293500
O        6.06925500       2.83065500       0.20492200
O        5.48910000      -1.68427500       0.08194900
C       -1.02041300       3.90352800       0.03216900
C       -2.41794600       4.08003500      -0.00262400
C       -2.70602800       1.67000700      -0.06716000
C       -3.25245200       2.98347100      -0.05156500
C       -3.56691500       0.53850500      -0.11766500
C       -3.03687800      -0.73433100      -0.13279200
C       -1.64041100      -0.91883000      -0.09829200
C       -4.72314700       3.17392200      -0.08803700
C       -5.03773600       0.72818300      -0.15412500
N       -5.53143900       2.03522700      -0.13722100
O       -5.26133100       4.29529300      -0.07673500
O       -5.84203300      -0.21964700      -0.19870900
H        0.62972700      -2.20233100      -0.06573200
H        3.07286500      -2.48716200      -0.00439800
H        1.49989900       4.56697900       0.11841200
H        3.93550500       4.22152900       0.17822500
H        6.75033500       0.44779700       0.16755800
H       -0.40199700       4.81321100       0.07071000
H       -2.84532000       5.09816700       0.00933800
H       -3.70773700      -1.61056600      -0.17200800
H       -1.27202900      -1.95588300      -0.11238600
H       -6.52266300       2.16338500      -0.16179200
C        2.58249721       1.29827337       7.81420988
C        2.75979743       1.33163947       6.39385583
C        2.41318993       2.54686583       5.66430717
C        2.07469531       2.42425700       8.53821967
C        1.72824568       3.63953420       7.80884233
C        1.90545620       3.67280464       6.38847015
C        1.56864078       4.85409488       5.67903306
C        1.06266344       5.98372330       6.38052228
C        1.73756722       4.90667596       4.26741304
C        1.38543600       6.14181843       3.52512420
C        1.23247875       4.76076033       8.45701919
C        0.89907334       5.93239897       7.74872696
C        2.56363233       2.63688416       4.28874127
C        2.22796370       3.81198077       3.58735233
C        0.71038148       7.21913378       5.63889364
N        0.89199092       7.22733907       4.25350527
O        1.51026228       6.24983384       2.29222937
O        0.26408123       8.23860911       6.19454930
C        3.25577896       0.21065932       5.74560961
C        3.58922159      -0.96095645       6.45384421
C        2.91922311       0.11710267       8.52369484
C        3.42536088      -1.01224077       7.82196981
C        2.75010970       0.06434763       9.93528668
C        2.25955125       1.15916444      10.61499846
C        1.92397957       2.33429512       9.91370698
C        3.77764998      -2.24773939       8.56357694
C        3.10215936      -1.17084223      10.67757270
N        3.59579878      -2.25611292       9.94894381
O        4.22414749      -3.26711702       8.00792247
O        2.97712972      -1.27909388      11.91041992
H        1.08188745       4.77530549       9.54722267
H        0.50618076       6.81071292       8.29044415
H        2.95046414       1.79384004       3.69624402
H        2.35785991       3.85610695       2.49168379
H        0.65462512       8.05986050       3.75338195
H        3.40652285       0.19630778       4.65541824
H        3.98233765      -1.83929771       5.91221629
H        2.12941849       1.11508120      11.71067158
H        1.53701713       3.17742020      10.50597637
H        3.83316033      -3.08871414      10.44893175
