80
Dimer: struct; Energy: -4906.06228 eV
C       -1.29972200       1.48833600      -0.03228100
C       -0.45010500       2.63965400       0.01843500
C        0.99654200       2.45238200       0.05441800
C       -0.76903400       0.15867800      -0.04877100
C        0.67752200      -0.02870400      -0.01297900
C        1.52709100       1.12265000       0.03785500
C        2.93347700       0.94084900       0.07277000
C        3.48023700      -0.37253000       0.05696900
C        3.79427800       2.07240500       0.12351100
C        5.26507800       1.88272800       0.16006300
C        1.24802600      -1.29258500      -0.02698300
C        2.64560500      -1.46904700       0.00777700
C        1.86805800       3.52983300       0.10418700
C        3.26457400       3.34539700       0.13880400
C        4.95087500      -0.56291500       0.09346700
N        5.75909100       0.57580800       0.14293500
O        6.06925500       2.83065500       0.20492200
O        5.48910000      -1.68427500       0.08194900
C       -1.02041300       3.90352800       0.03216900
C       -2.41794600       4.08003500      -0.00262400
C       -2.70602800       1.67000700      -0.06716000
C       -3.25245200       2.98347100      -0.05156500
C       -3.56691500       0.53850500      -0.11766500
C       -3.03687800      -0.73433100      -0.13279200
C       -1.64041100      -0.91883000      -0.09829200
C       -4.72314700       3.17392200      -0.08803700
C       -5.03773600       0.72818300      -0.15412500
N       -5.53143900       2.03522700      -0.13722100
O       -5.26133100       4.29529300      -0.07673500
O       -5.84203300      -0.21964700      -0.19870900
H        0.62972700      -2.20233100      -0.06573200
H        3.07286500      -2.48716200      -0.00439800
H        1.49989900       4.56697900       0.11841200
H        3.93550500       4.22152900       0.17822500
H        6.75033500       0.44779700       0.16755800
H       -0.40199700       4.81321100       0.07071000
H       -2.84532000       5.09816700       0.00933800
H       -3.70773700      -1.61056600      -0.17200800
H       -1.27202900      -1.95588300      -0.11238600
H       -6.52266300       2.16338500      -0.16179200
C        7.28917754      10.80999870       4.17344027
C        6.81192504      11.72093013       3.17725340
C        6.09345165      11.19493230       2.02127962
C        7.08079269       9.39753230       4.06663913
C        6.36221218       8.87146350       2.91086622
C        5.88508271       9.78243244       1.91464804
C        5.18653186       9.27132939       0.79081860
C        4.96924015       7.87078584       0.66663059
C        4.70467729      10.16046902      -0.20979066
C        3.97413544       9.62639075      -1.38522039
C        6.13080087       7.51313260       2.75449456
C        5.43641073       7.00929521       1.63666435
C        5.60858478      12.02919079       1.02537066
C        4.91514067      11.51788944      -0.08960831
C        4.23878284       7.33606389      -0.50846907
N        3.78305119       8.24466928      -1.46716359
O        3.52877867      10.35143509      -2.29254978
O        4.01737565       6.12326211      -0.67387091
C        7.04300472      13.07922784       3.33360828
C        7.73733980      13.58310040       4.45140745
C        7.98772513      11.32095424       5.29721657
C        8.20465998      12.72151593       5.42121782
C        8.46982165      10.43186985       6.29775934
C        8.25931395       9.07450962       6.17718053
C        7.56580040       8.56316745       5.06231805
C        8.93516512      13.25631338       6.59633462
C        9.20045250      10.96594726       7.47315773
N        9.39117582      12.34773213       7.55493552
O        9.15636685      14.46913206       6.76181366
O        9.64609943      10.24100497       8.38041766
H        6.48113587       6.78069917       3.49762280
H        5.26623336       5.92279798       1.53756380
H        5.74820126      13.12000727       1.07055753
H        4.53983376      12.20526676      -0.86804704
H        3.29070522       7.88455581      -2.25929458
H        6.69243579      13.81158793       2.59050865
H        7.90739541      14.66965676       4.55070882
H        8.63476341       8.38700037       6.95547752
H        7.42617180       7.47237869       5.01685801
H        9.88354600      12.70797946       8.34698772
