80
Dimer: struct; Energy: -4906.06228 eV
C       -1.29972200       1.48833600      -0.03228100
C       -0.45010500       2.63965400       0.01843500
C        0.99654200       2.45238200       0.05441800
C       -0.76903400       0.15867800      -0.04877100
C        0.67752200      -0.02870400      -0.01297900
C        1.52709100       1.12265000       0.03785500
C        2.93347700       0.94084900       0.07277000
C        3.48023700      -0.37253000       0.05696900
C        3.79427800       2.07240500       0.12351100
C        5.26507800       1.88272800       0.16006300
C        1.24802600      -1.29258500      -0.02698300
C        2.64560500      -1.46904700       0.00777700
C        1.86805800       3.52983300       0.10418700
C        3.26457400       3.34539700       0.13880400
C        4.95087500      -0.56291500       0.09346700
N        5.75909100       0.57580800       0.14293500
O        6.06925500       2.83065500       0.20492200
O        5.48910000      -1.68427500       0.08194900
C       -1.02041300       3.90352800       0.03216900
C       -2.41794600       4.08003500      -0.00262400
C       -2.70602800       1.67000700      -0.06716000
C       -3.25245200       2.98347100      -0.05156500
C       -3.56691500       0.53850500      -0.11766500
C       -3.03687800      -0.73433100      -0.13279200
C       -1.64041100      -0.91883000      -0.09829200
C       -4.72314700       3.17392200      -0.08803700
C       -5.03773600       0.72818300      -0.15412500
N       -5.53143900       2.03522700      -0.13722100
O       -5.26133100       4.29529300      -0.07673500
O       -5.84203300      -0.21964700      -0.19870900
H        0.62972700      -2.20233100      -0.06573200
H        3.07286500      -2.48716200      -0.00439800
H        1.49989900       4.56697900       0.11841200
H        3.93550500       4.22152900       0.17822500
H        6.75033500       0.44779700       0.16755800
H       -0.40199700       4.81321100       0.07071000
H       -2.84532000       5.09816700       0.00933800
H       -3.70773700      -1.61056600      -0.17200800
H       -1.27202900      -1.95588300      -0.11238600
H       -6.52266300       2.16338500      -0.16179200
C        3.70940135       7.49287991       6.09792342
C        4.61017631       8.41797418       6.71659891
C        4.40716132       8.77715143       8.11621662
C        2.61526497       6.91059629       6.81465449
C        2.41227005       7.26953683       8.21425161
C        3.31300840       8.19472858       8.83284537
C        3.11589432       8.54399970      10.19348786
C        2.03443017       7.97599124      10.92284527
C        4.00018886       9.46163901      10.82589063
C        3.79439568       9.82718361      12.24877234
C        1.37000328       6.73716886       8.95811345
C        1.17754034       7.08660389      10.30956723
C        5.24732077       9.66760063       8.76748467
C        5.04840528      10.01223650      10.11919864
C        1.82808891       8.34105720      12.34569621
N        2.72003878       9.24586497      12.92715866
O        4.53220640      10.62264732      12.85717303
O        0.90220331       7.87903880      13.03601636
C        5.65258711       8.95018620       5.97299456
C        5.84510490       8.60076383       4.62158616
C        3.90638649       7.14358966       4.73736815
C        4.98803111       7.71158454       4.00837102
C        3.02200374       6.22613848       4.10481425
C        1.97381450       5.67585593       4.81175695
C        1.77491478       6.02035122       6.16346406
C        5.19441295       7.34655796       2.58544878
C        3.22774580       5.86065998       2.68188869
N        4.30232598       6.44196455       2.00383643
O        6.12042971       7.80842598       1.89522160
O        2.48986069       5.06542822       2.07328774
H        0.65642792       6.02311844       8.51950756
H        0.33909331       6.64737321      10.87819757
H        6.09907730      10.13657646       8.25174472
H        5.73292592      10.72417334      10.61304795
H        2.58120441       9.49211687      13.88613874
H        6.36622674       9.66407472       6.41177533
H        6.68368938       9.03980331       4.05289924
H        1.28909111       4.96404435       4.31793955
H        0.92315574       5.55159550       6.67936857
H        4.44125120       6.19583980       1.04483924
