80
Dimer: struct; Energy: -4906.06228 eV
C       -1.29972200       1.48833600      -0.03228100
C       -0.45010500       2.63965400       0.01843500
C        0.99654200       2.45238200       0.05441800
C       -0.76903400       0.15867800      -0.04877100
C        0.67752200      -0.02870400      -0.01297900
C        1.52709100       1.12265000       0.03785500
C        2.93347700       0.94084900       0.07277000
C        3.48023700      -0.37253000       0.05696900
C        3.79427800       2.07240500       0.12351100
C        5.26507800       1.88272800       0.16006300
C        1.24802600      -1.29258500      -0.02698300
C        2.64560500      -1.46904700       0.00777700
C        1.86805800       3.52983300       0.10418700
C        3.26457400       3.34539700       0.13880400
C        4.95087500      -0.56291500       0.09346700
N        5.75909100       0.57580800       0.14293500
O        6.06925500       2.83065500       0.20492200
O        5.48910000      -1.68427500       0.08194900
C       -1.02041300       3.90352800       0.03216900
C       -2.41794600       4.08003500      -0.00262400
C       -2.70602800       1.67000700      -0.06716000
C       -3.25245200       2.98347100      -0.05156500
C       -3.56691500       0.53850500      -0.11766500
C       -3.03687800      -0.73433100      -0.13279200
C       -1.64041100      -0.91883000      -0.09829200
C       -4.72314700       3.17392200      -0.08803700
C       -5.03773600       0.72818300      -0.15412500
N       -5.53143900       2.03522700      -0.13722100
O       -5.26133100       4.29529300      -0.07673500
O       -5.84203300      -0.21964700      -0.19870900
H        0.62972700      -2.20233100      -0.06573200
H        3.07286500      -2.48716200      -0.00439800
H        1.49989900       4.56697900       0.11841200
H        3.93550500       4.22152900       0.17822500
H        6.75033500       0.44779700       0.16755800
H       -0.40199700       4.81321100       0.07071000
H       -2.84532000       5.09816700       0.00933800
H       -3.70773700      -1.61056600      -0.17200800
H       -1.27202900      -1.95588300      -0.11238600
H       -6.52266300       2.16338500      -0.16179200
C        8.64827242       6.55450332       8.84690477
C        8.61472778       5.20078925       9.31197172
C        8.08091796       4.16306035       8.43600429
C        8.17266907       6.91786162       7.54626483
C        7.63903634       5.88024829       6.67018719
C        7.60540730       4.52656482       7.13535143
C        7.08657788       3.51755518       6.28393625
C        6.60924884       3.85853469       4.98776862
C        7.04467948       2.16664554       6.72807549
C        6.50216211       1.11115940       5.83802495
C        7.16463921       6.17317143       5.40045906
C        6.65002313       5.16799771       4.55762442
C        8.02336621       2.83557142       8.83271411
C        7.50727430       1.83595517       7.98425173
C        6.06665960       2.80359108       4.09723755
N        6.04422047       1.49019325       4.57350730
O        6.43876721      -0.08645238       6.16815475
O        5.63483972       3.03804269       2.95450788
C        9.08930924       4.90768273      10.58149066
C        9.60395207       5.91278929      11.42432357
C        9.16701199       7.56353044       9.69819261
C        9.64444500       7.22220887      10.99417385
C        9.20873408       8.91450399       9.25422898
C        8.74592017       9.24485576       7.99806398
C        8.22993567       8.24530234       7.14953397
C       10.18704439       8.27716179      11.88479487
C        9.75117390       9.97001695      10.14432613
N       10.20925369       9.59063655      11.40869388
O       10.61905221       8.04264594      13.02742964
O        9.81437788      11.16769877       9.81443732
H        7.17323672       7.20072188       5.00612535
H        6.27886032       5.42960494       3.55111694
H        8.37868530       2.51581964       9.82413853
H        7.47331478       0.78646323       8.32589939
H        5.67855832       0.77895401       3.97351754
H        9.08085040       3.88005225      10.97563652
H        9.97535031       5.65123812      12.43082182
H        8.77964388      10.29437515       7.65637813
H        7.87444888       8.56483645       6.15811582
H       10.57489763      10.30177874      12.00880597
