80
Dimer: struct; Energy: -4906.06228 eV
C       -1.29972200       1.48833600      -0.03228100
C       -0.45010500       2.63965400       0.01843500
C        0.99654200       2.45238200       0.05441800
C       -0.76903400       0.15867800      -0.04877100
C        0.67752200      -0.02870400      -0.01297900
C        1.52709100       1.12265000       0.03785500
C        2.93347700       0.94084900       0.07277000
C        3.48023700      -0.37253000       0.05696900
C        3.79427800       2.07240500       0.12351100
C        5.26507800       1.88272800       0.16006300
C        1.24802600      -1.29258500      -0.02698300
C        2.64560500      -1.46904700       0.00777700
C        1.86805800       3.52983300       0.10418700
C        3.26457400       3.34539700       0.13880400
C        4.95087500      -0.56291500       0.09346700
N        5.75909100       0.57580800       0.14293500
O        6.06925500       2.83065500       0.20492200
O        5.48910000      -1.68427500       0.08194900
C       -1.02041300       3.90352800       0.03216900
C       -2.41794600       4.08003500      -0.00262400
C       -2.70602800       1.67000700      -0.06716000
C       -3.25245200       2.98347100      -0.05156500
C       -3.56691500       0.53850500      -0.11766500
C       -3.03687800      -0.73433100      -0.13279200
C       -1.64041100      -0.91883000      -0.09829200
C       -4.72314700       3.17392200      -0.08803700
C       -5.03773600       0.72818300      -0.15412500
N       -5.53143900       2.03522700      -0.13722100
O       -5.26133100       4.29529300      -0.07673500
O       -5.84203300      -0.21964700      -0.19870900
H        0.62972700      -2.20233100      -0.06573200
H        3.07286500      -2.48716200      -0.00439800
H        1.49989900       4.56697900       0.11841200
H        3.93550500       4.22152900       0.17822500
H        6.75033500       0.44779700       0.16755800
H       -0.40199700       4.81321100       0.07071000
H       -2.84532000       5.09816700       0.00933800
H       -3.70773700      -1.61056600      -0.17200800
H       -1.27202900      -1.95588300      -0.11238600
H       -6.52266300       2.16338500      -0.16179200
C       10.70375609       3.20225135       6.43691027
C        9.86169616       2.21876955       5.82563870
C        8.71274113       2.65801106       5.04070407
C       10.44957389       4.60449765       6.29911044
C        9.30081792       5.04383897       5.51409051
C        8.45872164       4.06030845       4.90293655
C        7.34175156       4.48707355       4.13975791
C        7.07245391       5.87613495       3.99093667
C        6.49313299       3.52500624       3.52474163
C        5.32492846       3.97087294       2.72657679
C        9.00570597       6.38836661       5.34610097
C        7.89519419       6.80832625       4.58717301
C        7.86260533       1.75108528       4.42615342
C        6.75396973       2.17870308       3.66882784
C        5.90449429       6.32267130       3.19292020
N        5.09757625       5.34428259       2.60641439
O        4.54660419       3.17956604       2.16504025
O        5.61664529       7.52123161       3.02599741
C       10.15681386       0.87429457       5.99329876
C       11.26730338       0.45430019       6.75216734
C       11.82065659       2.77562680       7.20008930
C       12.08979971       1.38654981       7.34853847
C       12.66919663       3.73761613       7.81533744
C       12.40797791       5.08381818       7.67116966
C       11.29945837       5.51149401       6.91378731
C       13.25778133       0.93993739       8.14659979
C       13.83736297       3.29174097       8.61358817
N       14.06458742       1.91827350       8.73337377
O       13.54572499      -0.25861765       8.31332391
O       14.61560743       4.08291999       9.17540168
H        9.62813155       7.17484647       5.79938757
H        7.68367721       7.88571256       4.46988369
H        8.02367183       0.66538375       4.50815938
H        6.09330227       1.43458287       3.19017002
H        4.31029394       5.64494983       2.06850773
H        9.53442657       0.08790589       5.53978602
H       11.47903573      -0.62311438       6.86934953
H       13.06847837       5.82804409       8.14996442
H       11.13812563       6.59713831       6.83174422
H       14.85180543       1.61746315       9.27129026
