80
Dimer: struct; Energy: -4906.06228 eV
C       -1.29972200       1.48833600      -0.03228100
C       -0.45010500       2.63965400       0.01843500
C        0.99654200       2.45238200       0.05441800
C       -0.76903400       0.15867800      -0.04877100
C        0.67752200      -0.02870400      -0.01297900
C        1.52709100       1.12265000       0.03785500
C        2.93347700       0.94084900       0.07277000
C        3.48023700      -0.37253000       0.05696900
C        3.79427800       2.07240500       0.12351100
C        5.26507800       1.88272800       0.16006300
C        1.24802600      -1.29258500      -0.02698300
C        2.64560500      -1.46904700       0.00777700
C        1.86805800       3.52983300       0.10418700
C        3.26457400       3.34539700       0.13880400
C        4.95087500      -0.56291500       0.09346700
N        5.75909100       0.57580800       0.14293500
O        6.06925500       2.83065500       0.20492200
O        5.48910000      -1.68427500       0.08194900
C       -1.02041300       3.90352800       0.03216900
C       -2.41794600       4.08003500      -0.00262400
C       -2.70602800       1.67000700      -0.06716000
C       -3.25245200       2.98347100      -0.05156500
C       -3.56691500       0.53850500      -0.11766500
C       -3.03687800      -0.73433100      -0.13279200
C       -1.64041100      -0.91883000      -0.09829200
C       -4.72314700       3.17392200      -0.08803700
C       -5.03773600       0.72818300      -0.15412500
N       -5.53143900       2.03522700      -0.13722100
O       -5.26133100       4.29529300      -0.07673500
O       -5.84203300      -0.21964700      -0.19870900
H        0.62972700      -2.20233100      -0.06573200
H        3.07286500      -2.48716200      -0.00439800
H        1.49989900       4.56697900       0.11841200
H        3.93550500       4.22152900       0.17822500
H        6.75033500       0.44779700       0.16755800
H       -0.40199700       4.81321100       0.07071000
H       -2.84532000       5.09816700       0.00933800
H       -3.70773700      -1.61056600      -0.17200800
H       -1.27202900      -1.95588300      -0.11238600
H       -6.52266300       2.16338500      -0.16179200
C       -0.27206312       6.08233495       8.62828856
C       -0.31409758       4.65863240       8.77409128
C        0.20952334       3.82011206       7.70084485
C        0.26958764       6.70572323       7.45871873
C        0.79337677       5.86735544       6.38554506
C        0.75120996       4.44365241       6.53135061
C        1.26025183       3.62828112       5.48816401
C        1.80275909       4.22880597       4.31802882
C        1.22718224       2.21160825       5.61432408
C        1.75938930       1.35855788       4.52362396
C        1.32993254       6.41530448       5.23015514
C        1.83465399       5.60193971       4.19610090
C        0.19494418       2.43615098       7.78661744
C        0.70146255       1.62938736       6.74832870
C        2.33513915       3.37638946       3.22701451
N        2.28291257       1.98992942       3.39239655
O        1.75874203       0.11569367       4.57428685
O        2.82163141       3.84090576       2.18067951
C       -0.85033956       4.11057084       9.92946585
C       -1.35502665       4.92387321      10.96353256
C       -0.78107603       6.89774625       9.67132630
C       -1.32330151       6.29694334      10.84138505
C       -0.74826301       8.31442470       9.54515413
C       -0.22261581       8.89629743       8.41095896
C        0.28400685       8.08961948       7.37271315
C       -1.85574191       7.14934823      11.93246649
C       -1.28056056       9.16748359      10.63582884
N       -1.80380496       8.53582371      11.76702888
O       -2.34202806       6.68480768      12.97887489
O       -1.28022794      10.41034252      10.58518602
H        1.38058509       7.50447155       5.07988093
H        2.25633305       6.06515204       3.28677225
H       -0.21269628       1.91898481       8.66853786
H        0.67729564       0.52950097       6.84306835
H        2.64164866       1.41514917       2.65721367
H       -0.90074755       3.02138245      10.07971431
H       -1.77655827       4.46073648      11.87303784
H       -0.19858187       9.99620032       8.31601965
H        0.69158384       8.60655989       6.49064939
H       -2.16261849       9.11047937      12.50226826
