80
Dimer: struct; Energy: -4906.06228 eV
C       -1.29972200       1.48833600      -0.03228100
C       -0.45010500       2.63965400       0.01843500
C        0.99654200       2.45238200       0.05441800
C       -0.76903400       0.15867800      -0.04877100
C        0.67752200      -0.02870400      -0.01297900
C        1.52709100       1.12265000       0.03785500
C        2.93347700       0.94084900       0.07277000
C        3.48023700      -0.37253000       0.05696900
C        3.79427800       2.07240500       0.12351100
C        5.26507800       1.88272800       0.16006300
C        1.24802600      -1.29258500      -0.02698300
C        2.64560500      -1.46904700       0.00777700
C        1.86805800       3.52983300       0.10418700
C        3.26457400       3.34539700       0.13880400
C        4.95087500      -0.56291500       0.09346700
N        5.75909100       0.57580800       0.14293500
O        6.06925500       2.83065500       0.20492200
O        5.48910000      -1.68427500       0.08194900
C       -1.02041300       3.90352800       0.03216900
C       -2.41794600       4.08003500      -0.00262400
C       -2.70602800       1.67000700      -0.06716000
C       -3.25245200       2.98347100      -0.05156500
C       -3.56691500       0.53850500      -0.11766500
C       -3.03687800      -0.73433100      -0.13279200
C       -1.64041100      -0.91883000      -0.09829200
C       -4.72314700       3.17392200      -0.08803700
C       -5.03773600       0.72818300      -0.15412500
N       -5.53143900       2.03522700      -0.13722100
O       -5.26133100       4.29529300      -0.07673500
O       -5.84203300      -0.21964700      -0.19870900
H        0.62972700      -2.20233100      -0.06573200
H        3.07286500      -2.48716200      -0.00439800
H        1.49989900       4.56697900       0.11841200
H        3.93550500       4.22152900       0.17822500
H        6.75033500       0.44779700       0.16755800
H       -0.40199700       4.81321100       0.07071000
H       -2.84532000       5.09816700       0.00933800
H       -3.70773700      -1.61056600      -0.17200800
H       -1.27202900      -1.95588300      -0.11238600
H       -6.52266300       2.16338500      -0.16179200
C       10.67044858       2.31706480       7.43847875
C        9.30962206       2.00275790       7.75362415
C        8.25913481       2.37713606       6.81262965
C       11.02877486       2.98833470       6.22567576
C        9.97845033       3.36257772       5.28457116
C        8.61762527       3.04834980       5.59982279
C        7.59623055       3.41213529       4.68516154
C        7.93207711       4.07966483       3.47447084
C        6.23806030       3.10863384       4.98051287
C        5.16961516       3.48891419       4.02428178
C       10.26605361       4.01396373       4.09459354
C        9.24858234       4.37366155       3.18853402
C        6.92427537       2.09873252       7.06473970
C        5.91235012       2.46165532       6.15382464
C        6.86418392       4.46018313       2.51782846
N        5.54398272       4.14294412       2.84764425
O        3.96518322       3.25163748       4.22508524
O        7.09363107       5.04466446       1.44404885
C        9.02190236       1.35117315       8.94336027
C       10.03931489       0.99143464       9.84940867
C       11.69185085       1.95338299       8.35302257
C       11.35571354       1.28569518       9.56348313
C       13.05002663       2.25705220       8.05786577
C       13.37535714       2.90416692       6.88454479
C       12.36352361       3.26700619       5.97356137
C       12.42361007       0.90516016      10.52021490
C       14.11847567       1.87684840       9.01415192
N       13.74381765       1.22262240      10.19059236
O       12.19415256       0.32049170      11.59387905
O       15.32290986       2.11430189       8.81360956
H       11.29879703       4.27300636       3.81571928
H        9.50618596       4.89180034       2.24809260
H        6.60802547       1.58454815       7.98507424
H        4.85719508       2.22757630       6.38002046
H        4.82401147       4.39930305       2.20306742
H        7.98913020       1.09199692       9.22202900
H        9.78182079       0.47308087      10.78982908
H       14.43048773       3.13848456       6.65833217
H       12.67952333       3.78130428       5.05322203
H       14.46367974       0.96624742      10.83528118
