80
Dimer: struct; Energy: -4906.06228 eV
C       -1.29972200       1.48833600      -0.03228100
C       -0.45010500       2.63965400       0.01843500
C        0.99654200       2.45238200       0.05441800
C       -0.76903400       0.15867800      -0.04877100
C        0.67752200      -0.02870400      -0.01297900
C        1.52709100       1.12265000       0.03785500
C        2.93347700       0.94084900       0.07277000
C        3.48023700      -0.37253000       0.05696900
C        3.79427800       2.07240500       0.12351100
C        5.26507800       1.88272800       0.16006300
C        1.24802600      -1.29258500      -0.02698300
C        2.64560500      -1.46904700       0.00777700
C        1.86805800       3.52983300       0.10418700
C        3.26457400       3.34539700       0.13880400
C        4.95087500      -0.56291500       0.09346700
N        5.75909100       0.57580800       0.14293500
O        6.06925500       2.83065500       0.20492200
O        5.48910000      -1.68427500       0.08194900
C       -1.02041300       3.90352800       0.03216900
C       -2.41794600       4.08003500      -0.00262400
C       -2.70602800       1.67000700      -0.06716000
C       -3.25245200       2.98347100      -0.05156500
C       -3.56691500       0.53850500      -0.11766500
C       -3.03687800      -0.73433100      -0.13279200
C       -1.64041100      -0.91883000      -0.09829200
C       -4.72314700       3.17392200      -0.08803700
C       -5.03773600       0.72818300      -0.15412500
N       -5.53143900       2.03522700      -0.13722100
O       -5.26133100       4.29529300      -0.07673500
O       -5.84203300      -0.21964700      -0.19870900
H        0.62972700      -2.20233100      -0.06573200
H        3.07286500      -2.48716200      -0.00439800
H        1.49989900       4.56697900       0.11841200
H        3.93550500       4.22152900       0.17822500
H        6.75033500       0.44779700       0.16755800
H       -0.40199700       4.81321100       0.07071000
H       -2.84532000       5.09816700       0.00933800
H       -3.70773700      -1.61056600      -0.17200800
H       -1.27202900      -1.95588300      -0.11238600
H       -6.52266300       2.16338500      -0.16179200
C        6.74491142      11.93399070       6.12391822
C        6.55211422      12.31397956       4.75702686
C        6.44253922      11.27308008       3.74032892
C        6.83301038      10.56110433       6.52054607
C        6.72327152       9.52016968       5.50401778
C        6.53059168       9.90021963       4.13712197
C        6.42396823       8.88849069       3.14857343
C        6.50884090       7.51846589       3.52272480
C        6.23236270       9.24604316       1.78496955
C        6.12083677       8.18833087       0.75086476
C        6.80096588       8.17437804       5.82940149
C        6.69454800       7.17228515       4.84448565
C        6.25548855      11.58148960       2.40136911
C        6.15004984      10.57378826       1.42213849
C        6.39736909       6.46029636       2.48918430
N        6.20973607       6.85596853       1.16231293
O        5.95297152       8.43654326      -0.45640093
O        6.46346391       5.24646045       2.75281459
C        6.47413188      13.65963732       4.43154063
C        6.58050627      14.66173623       5.41639901
C        6.85157727      12.94556903       7.11247735
C        6.76645188      14.31544730       6.73804809
C        7.04341860      12.58811841       8.47607550
C        7.12583676      11.26029425       8.83852519
C        7.02029634      10.25257064       7.85939059
C        6.87794770      15.37370460       7.77158848
C        7.15503749      13.64584691       9.51018049
N        7.06586590      14.97810896       9.09845402
O        6.81163390      16.58751806       7.50795610
O        7.32317555      13.39779221      10.71743421
H        6.94843977       7.84134201       6.86804068
H        6.76001489       6.10814658       5.13185420
H        6.18278282      12.62407257       2.05618823
H        6.00131018      10.84789025       0.36286784
H        6.13458457       6.14298412       0.46548923
H        6.32644729      13.99254600       3.39288381
H        6.51484066      15.72595302       5.12914467
H        7.27478289      10.98607227       9.89776776
H        7.09309356       9.20992624       8.20431969
H        7.14104794      15.69119781       9.79516427
