80
Dimer: struct; Energy: -4906.06228 eV
C       -1.29972200       1.48833600      -0.03228100
C       -0.45010500       2.63965400       0.01843500
C        0.99654200       2.45238200       0.05441800
C       -0.76903400       0.15867800      -0.04877100
C        0.67752200      -0.02870400      -0.01297900
C        1.52709100       1.12265000       0.03785500
C        2.93347700       0.94084900       0.07277000
C        3.48023700      -0.37253000       0.05696900
C        3.79427800       2.07240500       0.12351100
C        5.26507800       1.88272800       0.16006300
C        1.24802600      -1.29258500      -0.02698300
C        2.64560500      -1.46904700       0.00777700
C        1.86805800       3.52983300       0.10418700
C        3.26457400       3.34539700       0.13880400
C        4.95087500      -0.56291500       0.09346700
N        5.75909100       0.57580800       0.14293500
O        6.06925500       2.83065500       0.20492200
O        5.48910000      -1.68427500       0.08194900
C       -1.02041300       3.90352800       0.03216900
C       -2.41794600       4.08003500      -0.00262400
C       -2.70602800       1.67000700      -0.06716000
C       -3.25245200       2.98347100      -0.05156500
C       -3.56691500       0.53850500      -0.11766500
C       -3.03687800      -0.73433100      -0.13279200
C       -1.64041100      -0.91883000      -0.09829200
C       -4.72314700       3.17392200      -0.08803700
C       -5.03773600       0.72818300      -0.15412500
N       -5.53143900       2.03522700      -0.13722100
O       -5.26133100       4.29529300      -0.07673500
O       -5.84203300      -0.21964700      -0.19870900
H        0.62972700      -2.20233100      -0.06573200
H        3.07286500      -2.48716200      -0.00439800
H        1.49989900       4.56697900       0.11841200
H        3.93550500       4.22152900       0.17822500
H        6.75033500       0.44779700       0.16755800
H       -0.40199700       4.81321100       0.07071000
H       -2.84532000       5.09816700       0.00933800
H       -3.70773700      -1.61056600      -0.17200800
H       -1.27202900      -1.95588300      -0.11238600
H       -6.52266300       2.16338500      -0.16179200
C        5.04994206       9.35891294       3.37737399
C        4.22411114       8.38535699       4.02556100
C        4.21079522       8.32437379       5.48338708
C        5.86275996      10.27410430       4.12010133
C        5.84938679      10.21334104       5.57785519
C        5.02362438       9.23968493       6.22598929
C        5.01045743       9.18025536       7.64320028
C        5.81111616      10.08121494       8.39909578
C        4.19653118       8.21972487       8.30567839
C        4.18248900       8.15721987       9.78772494
C        6.61571226      11.07423221       6.34900873
C        6.59987782      11.01207539       7.75665214
C        3.43095872       7.40258717       6.16535643
C        3.42044913       7.34645611       7.57326650
C        5.79752401      10.01928093       9.88109919
N        4.98386804       9.06068178      10.49052670
O        3.49293323       7.34104510      10.42463165
O        6.47445801      10.77864962      10.59691105
C        3.45756894       7.52462986       3.25460108
C        3.47334386       7.58677073       1.84699551
C        5.06321301       9.41840322       1.96026347
C        4.26230756       8.51748077       1.20468469
C        5.87728711      10.37874528       1.29769238
C        6.65334981      11.25174859       2.03040749
C        6.64280147      11.19574827       3.43827925
C        4.27588143       8.57935600      -0.27738575
C        5.89139885      10.44118992      -0.18437476
N        5.08973681       9.53775203      -0.88689193
O        3.59877616       7.82012032      -0.99315966
O        6.58110646      11.25712270      -0.82141496
H        7.26320922      11.83627723       5.88915224
H        7.22020403      11.71002952       8.34598473
H        2.79275039       6.68233552       5.63118144
H        2.78984282       6.60212364       8.09058126
H        4.97451487       9.01869396      11.48937970
H        2.80994725       6.76275719       3.71458270
H        2.85286224       6.88896173       1.25754700
H        7.28416768      11.99600893       1.51318138
H        7.28101911      11.91581710       3.97265926
H        5.09902817       9.57959537      -1.88574929
