80
Dimer: struct; Energy: -4906.06228 eV
C       -1.29972200       1.48833600      -0.03228100
C       -0.45010500       2.63965400       0.01843500
C        0.99654200       2.45238200       0.05441800
C       -0.76903400       0.15867800      -0.04877100
C        0.67752200      -0.02870400      -0.01297900
C        1.52709100       1.12265000       0.03785500
C        2.93347700       0.94084900       0.07277000
C        3.48023700      -0.37253000       0.05696900
C        3.79427800       2.07240500       0.12351100
C        5.26507800       1.88272800       0.16006300
C        1.24802600      -1.29258500      -0.02698300
C        2.64560500      -1.46904700       0.00777700
C        1.86805800       3.52983300       0.10418700
C        3.26457400       3.34539700       0.13880400
C        4.95087500      -0.56291500       0.09346700
N        5.75909100       0.57580800       0.14293500
O        6.06925500       2.83065500       0.20492200
O        5.48910000      -1.68427500       0.08194900
C       -1.02041300       3.90352800       0.03216900
C       -2.41794600       4.08003500      -0.00262400
C       -2.70602800       1.67000700      -0.06716000
C       -3.25245200       2.98347100      -0.05156500
C       -3.56691500       0.53850500      -0.11766500
C       -3.03687800      -0.73433100      -0.13279200
C       -1.64041100      -0.91883000      -0.09829200
C       -4.72314700       3.17392200      -0.08803700
C       -5.03773600       0.72818300      -0.15412500
N       -5.53143900       2.03522700      -0.13722100
O       -5.26133100       4.29529300      -0.07673500
O       -5.84203300      -0.21964700      -0.19870900
H        0.62972700      -2.20233100      -0.06573200
H        3.07286500      -2.48716200      -0.00439800
H        1.49989900       4.56697900       0.11841200
H        3.93550500       4.22152900       0.17822500
H        6.75033500       0.44779700       0.16755800
H       -0.40199700       4.81321100       0.07071000
H       -2.84532000       5.09816700       0.00933800
H       -3.70773700      -1.61056600      -0.17200800
H       -1.27202900      -1.95588300      -0.11238600
H       -6.52266300       2.16338500      -0.16179200
C        4.07138319       5.71861061       6.06066475
C        3.20991873       5.26475734       5.01097409
C        1.76939078       5.23027980       5.24085154
C        3.55837127       6.13955795       7.32933105
C        2.11792635       6.10530027       7.55924882
C        1.25651510       5.65132581       6.50956055
C       -0.14392886       5.61778744       6.73277371
C       -0.67317647       6.03217392       7.98670409
C       -1.01629720       5.16979676       5.70211867
C       -2.48088721       5.13454156       5.93514067
C        1.56439028       6.50107320       8.76756489
C        0.17266298       6.46633381       8.98542366
C        0.88699804       4.80015879       4.26141459
C       -0.50356785       4.76816359       4.48674702
C       -2.13759784       5.99720427       8.22037451
N       -2.95760671       5.55031807       7.18103413
O       -3.29453303       4.75354238       5.07485079
O       -2.66068290       6.34614607       9.29363529
C        3.76324596       4.86923385       3.80258364
C        5.15492511       4.90398805       3.58467299
C        5.47175076       5.75215338       5.83758848
C        6.00065160       5.33792035       4.58352111
C        6.34421579       6.19990706       6.86826562
C        5.83115988       6.60131907       8.08355224
C        4.44063805       6.56945686       8.30890542
C        7.46513028       5.37284656       4.34979492
C        7.80883124       6.23507579       6.63527157
N        8.28522855       5.81945830       5.38919769
O        7.98816371       5.02410384       3.27645564
O        8.62260904       6.61578867       7.49555438
H        2.19218364       6.85621942       9.59893700
H       -0.24101365       6.78734793       9.95757544
H        1.24149477       4.46860698       3.27357822
H       -1.18344290       4.42098449       3.68890851
H       -3.94466364       5.52662581       7.33824437
H        3.13532644       4.51429974       2.97120781
H        5.56870496       4.58317474       2.61243359
H        6.51097441       6.94833435       8.88155604
H        4.08592376       6.90084549       9.29670206
H        9.27226608       5.84305326       5.23186551
