80
Dimer: struct; Energy: -4906.06228 eV
C       -1.29972200       1.48833600      -0.03228100
C       -0.45010500       2.63965400       0.01843500
C        0.99654200       2.45238200       0.05441800
C       -0.76903400       0.15867800      -0.04877100
C        0.67752200      -0.02870400      -0.01297900
C        1.52709100       1.12265000       0.03785500
C        2.93347700       0.94084900       0.07277000
C        3.48023700      -0.37253000       0.05696900
C        3.79427800       2.07240500       0.12351100
C        5.26507800       1.88272800       0.16006300
C        1.24802600      -1.29258500      -0.02698300
C        2.64560500      -1.46904700       0.00777700
C        1.86805800       3.52983300       0.10418700
C        3.26457400       3.34539700       0.13880400
C        4.95087500      -0.56291500       0.09346700
N        5.75909100       0.57580800       0.14293500
O        6.06925500       2.83065500       0.20492200
O        5.48910000      -1.68427500       0.08194900
C       -1.02041300       3.90352800       0.03216900
C       -2.41794600       4.08003500      -0.00262400
C       -2.70602800       1.67000700      -0.06716000
C       -3.25245200       2.98347100      -0.05156500
C       -3.56691500       0.53850500      -0.11766500
C       -3.03687800      -0.73433100      -0.13279200
C       -1.64041100      -0.91883000      -0.09829200
C       -4.72314700       3.17392200      -0.08803700
C       -5.03773600       0.72818300      -0.15412500
N       -5.53143900       2.03522700      -0.13722100
O       -5.26133100       4.29529300      -0.07673500
O       -5.84203300      -0.21964700      -0.19870900
H        0.62972700      -2.20233100      -0.06573200
H        3.07286500      -2.48716200      -0.00439800
H        1.49989900       4.56697900       0.11841200
H        3.93550500       4.22152900       0.17822500
H        6.75033500       0.44779700       0.16755800
H       -0.40199700       4.81321100       0.07071000
H       -2.84532000       5.09816700       0.00933800
H       -3.70773700      -1.61056600      -0.17200800
H       -1.27202900      -1.95588300      -0.11238600
H       -6.52266300       2.16338500      -0.16179200
C        6.13927725       7.46553232       7.67428376
C        5.18146464       8.42798622       7.22015625
C        4.20188056       8.03301265       6.21339708
C        6.16225527       6.12650890       7.16794360
C        5.18265794       5.73138866       6.16137198
C        4.22494007       6.69391969       5.70719348
C        3.27249609       6.31016188       4.72853489
C        3.27893836       4.98409367       4.21311061
C        2.31277036       7.25227247       4.26450238
C        1.31658315       6.85137316       3.24104899
C        5.15706328       4.44861375       5.63515953
C        4.20928882       4.07122634       4.66311196
C        3.25088524       8.92227459       5.73617716
C        2.30633482       8.53751820       4.76393288
C        2.28306214       4.58253834       3.18971501
N        1.35885074       5.53935474       2.76229727
O        0.45311319       7.62811174       2.79565549
O        2.23739783       3.43959659       2.70097584
C        5.20675543       9.71064179       7.74643790
C        6.15446204      10.08805421       8.71848512
C        7.09172549       7.84916612       8.65284644
C        7.08488600       9.17519856       9.16821161
C        8.05163906       6.90719129       9.11676809
C        8.05788078       5.62208945       8.61701431
C        7.11331592       5.23724626       7.64488102
C        8.08079869       9.57683284      10.19163399
C        9.04789669       7.30812268      10.14016745
N        9.00522774       8.62014069      10.61889549
O        8.12629955      10.71971313      10.68050718
O        9.91158924       6.53157747      10.58544916
H        5.87580779       3.68007645       5.95794376
H        4.21182076       3.04275401       4.26124664
H        3.20021451       9.95986387       6.09984761
H        1.56007344       9.26630342       4.40161293
H        0.68752139       5.26899805       2.07252779
H        4.48782003      10.47903842       7.42372218
H        6.15188018      11.11649625       9.12058549
H        8.80424536       4.89325795       8.97912207
H        7.16387242       4.19974856       7.28097796
H        9.67652705       8.89064808      11.30863182
