80
Dimer: struct; Energy: -4906.06228 eV
C       -1.29972200       1.48833600      -0.03228100
C       -0.45010500       2.63965400       0.01843500
C        0.99654200       2.45238200       0.05441800
C       -0.76903400       0.15867800      -0.04877100
C        0.67752200      -0.02870400      -0.01297900
C        1.52709100       1.12265000       0.03785500
C        2.93347700       0.94084900       0.07277000
C        3.48023700      -0.37253000       0.05696900
C        3.79427800       2.07240500       0.12351100
C        5.26507800       1.88272800       0.16006300
C        1.24802600      -1.29258500      -0.02698300
C        2.64560500      -1.46904700       0.00777700
C        1.86805800       3.52983300       0.10418700
C        3.26457400       3.34539700       0.13880400
C        4.95087500      -0.56291500       0.09346700
N        5.75909100       0.57580800       0.14293500
O        6.06925500       2.83065500       0.20492200
O        5.48910000      -1.68427500       0.08194900
C       -1.02041300       3.90352800       0.03216900
C       -2.41794600       4.08003500      -0.00262400
C       -2.70602800       1.67000700      -0.06716000
C       -3.25245200       2.98347100      -0.05156500
C       -3.56691500       0.53850500      -0.11766500
C       -3.03687800      -0.73433100      -0.13279200
C       -1.64041100      -0.91883000      -0.09829200
C       -4.72314700       3.17392200      -0.08803700
C       -5.03773600       0.72818300      -0.15412500
N       -5.53143900       2.03522700      -0.13722100
O       -5.26133100       4.29529300      -0.07673500
O       -5.84203300      -0.21964700      -0.19870900
H        0.62972700      -2.20233100      -0.06573200
H        3.07286500      -2.48716200      -0.00439800
H        1.49989900       4.56697900       0.11841200
H        3.93550500       4.22152900       0.17822500
H        6.75033500       0.44779700       0.16755800
H       -0.40199700       4.81321100       0.07071000
H       -2.84532000       5.09816700       0.00933800
H       -3.70773700      -1.61056600      -0.17200800
H       -1.27202900      -1.95588300      -0.11238600
H       -6.52266300       2.16338500      -0.16179200
C        3.92069932      -1.12375797       5.64974343
C        3.78871028      -0.80646801       7.03965720
C        3.42371454       0.55267737       7.42521533
C        3.70434296      -0.14439344       4.62801591
C        3.33918346       1.21466349       5.01342497
C        3.20732244       1.53192847       6.40336138
C        2.85243180       2.85312997       6.77842335
C        2.63308346       3.84055626       5.77790540
C        2.71659453       3.18795755       8.15443597
C        2.34550519       4.56950691       8.54709375
C        3.11725215       2.20434483       4.06772765
C        2.76482467       3.51566183       4.44431332
C        3.28172896       0.91767275       8.75545449
C        2.92911080       2.23110359       9.12427934
C        2.26195576       5.22222264       6.16984536
N        2.13943494       5.50751575       7.53217672
O        2.21148831       4.92394992       9.73186723
O        2.05724592       6.12883891       5.34316049
C        4.01032858      -1.79604536       7.98540522
C        4.36271379      -3.10734796       7.60887643
C        4.27559737      -2.44482890       5.27459489
C        4.49466028      -3.43204627       6.27530633
C        4.41168719      -2.77969062       3.89861482
C        4.19924709      -1.82255906       2.92905415
C        3.84652698      -0.50917814       3.29779431
C        4.86583123      -4.81378163       5.88340700
C        4.78287074      -4.16123446       3.50595608
N        4.98864694      -5.09907722       4.52109130
O        5.07032271      -5.72042336       6.71010324
O        4.91718871      -4.51574792       2.32124430
H        3.20846181       2.00081042       2.98991159
H        2.59393414       4.28413957       3.67004214
H        3.43940648       0.19453524       9.57008641
H        2.82286332       2.49430338      10.19140025
H        1.88932132       6.43867554       7.79664296
H        3.91888451      -1.59243852       9.06319423
H        4.53343106      -3.87598952       8.38310519
H        4.30566783      -2.08560091       1.86187980
H        3.68891906       0.21415498       2.48334247
H        5.23881145      -6.03026251       4.25677161
