80
Dimer: struct; Energy: -4906.06228 eV
C       -1.29972200       1.48833600      -0.03228100
C       -0.45010500       2.63965400       0.01843500
C        0.99654200       2.45238200       0.05441800
C       -0.76903400       0.15867800      -0.04877100
C        0.67752200      -0.02870400      -0.01297900
C        1.52709100       1.12265000       0.03785500
C        2.93347700       0.94084900       0.07277000
C        3.48023700      -0.37253000       0.05696900
C        3.79427800       2.07240500       0.12351100
C        5.26507800       1.88272800       0.16006300
C        1.24802600      -1.29258500      -0.02698300
C        2.64560500      -1.46904700       0.00777700
C        1.86805800       3.52983300       0.10418700
C        3.26457400       3.34539700       0.13880400
C        4.95087500      -0.56291500       0.09346700
N        5.75909100       0.57580800       0.14293500
O        6.06925500       2.83065500       0.20492200
O        5.48910000      -1.68427500       0.08194900
C       -1.02041300       3.90352800       0.03216900
C       -2.41794600       4.08003500      -0.00262400
C       -2.70602800       1.67000700      -0.06716000
C       -3.25245200       2.98347100      -0.05156500
C       -3.56691500       0.53850500      -0.11766500
C       -3.03687800      -0.73433100      -0.13279200
C       -1.64041100      -0.91883000      -0.09829200
C       -4.72314700       3.17392200      -0.08803700
C       -5.03773600       0.72818300      -0.15412500
N       -5.53143900       2.03522700      -0.13722100
O       -5.26133100       4.29529300      -0.07673500
O       -5.84203300      -0.21964700      -0.19870900
H        0.62972700      -2.20233100      -0.06573200
H        3.07286500      -2.48716200      -0.00439800
H        1.49989900       4.56697900       0.11841200
H        3.93550500       4.22152900       0.17822500
H        6.75033500       0.44779700       0.16755800
H       -0.40199700       4.81321100       0.07071000
H       -2.84532000       5.09816700       0.00933800
H       -3.70773700      -1.61056600      -0.17200800
H       -1.27202900      -1.95588300      -0.11238600
H       -6.52266300       2.16338500      -0.16179200
C       -0.10138410       9.74111821       7.78887699
C       -0.46796575       8.36804977       7.61493664
C        0.12608064       7.60876056       6.51960934
C        0.83189314      10.38943725       6.91791885
C        1.42611153       9.63024036       5.82272849
C        1.05940385       8.25720387       5.64876330
C        1.63682544       7.51883807       4.58406029
C        2.56639480       8.14519191       3.70785129
C        1.28509185       6.15340432       4.39472950
C        1.88868374       5.38089589       3.28141301
C        2.33563021      10.20548193       4.94812055
C        2.90707950       9.46864379       3.89166922
C       -0.19134755       6.27645341       6.30254996
C        0.38421087       5.54615357       5.24384010
C        3.17035848       7.37329640       2.59440624
N        2.79680748       6.03520447       2.44500781
O        1.62201454       4.18555016       3.06389358
O        3.98811510       7.86380024       1.79569031
C       -1.37720657       7.79262526       8.48957090
C       -1.94863920       8.52939325       9.54602791
C       -0.67873276      10.47953887       8.85345246
C       -1.60807298       9.85286166       9.72958743
C       -0.32723778      11.84504359       9.04271971
C        0.57355148      12.45201022       8.19333774
C        1.14921527      11.72175946       7.13470879
C       -2.21211297      10.62475030      10.84308157
C       -0.93090718      12.61758670      10.15599501
N       -1.83881894      11.96293780      10.99237022
O       -3.02969793      10.13416038      11.64190510
O       -0.66454184      13.81300229      10.37346726
H        2.64330045      11.25752112       5.04804788
H        3.62883915       9.95206071       3.21003253
H       -0.90393861       5.74239279       6.94939496
H        0.11336219       4.48618798       5.09409487
H        3.20370402       5.51470272       1.69462730
H       -1.68464329       6.74050910       8.38966511
H       -2.67028828       8.04598368      10.22787995
H        0.84432783      13.51205656       8.34286834
H        1.86173625      12.25564311       6.48766553
H       -2.24582834      12.48333070      11.74276198
