80
Dimer: struct; Energy: -4906.06228 eV
C       -1.29972200       1.48833600      -0.03228100
C       -0.45010500       2.63965400       0.01843500
C        0.99654200       2.45238200       0.05441800
C       -0.76903400       0.15867800      -0.04877100
C        0.67752200      -0.02870400      -0.01297900
C        1.52709100       1.12265000       0.03785500
C        2.93347700       0.94084900       0.07277000
C        3.48023700      -0.37253000       0.05696900
C        3.79427800       2.07240500       0.12351100
C        5.26507800       1.88272800       0.16006300
C        1.24802600      -1.29258500      -0.02698300
C        2.64560500      -1.46904700       0.00777700
C        1.86805800       3.52983300       0.10418700
C        3.26457400       3.34539700       0.13880400
C        4.95087500      -0.56291500       0.09346700
N        5.75909100       0.57580800       0.14293500
O        6.06925500       2.83065500       0.20492200
O        5.48910000      -1.68427500       0.08194900
C       -1.02041300       3.90352800       0.03216900
C       -2.41794600       4.08003500      -0.00262400
C       -2.70602800       1.67000700      -0.06716000
C       -3.25245200       2.98347100      -0.05156500
C       -3.56691500       0.53850500      -0.11766500
C       -3.03687800      -0.73433100      -0.13279200
C       -1.64041100      -0.91883000      -0.09829200
C       -4.72314700       3.17392200      -0.08803700
C       -5.03773600       0.72818300      -0.15412500
N       -5.53143900       2.03522700      -0.13722100
O       -5.26133100       4.29529300      -0.07673500
O       -5.84203300      -0.21964700      -0.19870900
H        0.62972700      -2.20233100      -0.06573200
H        3.07286500      -2.48716200      -0.00439800
H        1.49989900       4.56697900       0.11841200
H        3.93550500       4.22152900       0.17822500
H        6.75033500       0.44779700       0.16755800
H       -0.40199700       4.81321100       0.07071000
H       -2.84532000       5.09816700       0.00933800
H       -3.70773700      -1.61056600      -0.17200800
H       -1.27202900      -1.95588300      -0.11238600
H       -6.52266300       2.16338500      -0.16179200
C       10.52154490       2.36574796       4.45753636
C        9.17145399       2.78556569       4.68328383
C        8.47178944       3.51855007       3.63335216
C       11.20376695       2.64519697       3.23019232
C       10.50418165       3.37797341       2.18017497
C        9.15412712       3.79787040       2.40602204
C        8.47372002       4.51038957       1.38545610
C        9.13445607       4.79770281       0.15865557
C        7.13190953       4.93618336       1.59092204
C        6.42001160       5.68135678       0.52392439
C       11.11428072       3.67684938       0.97124222
C       10.43499627       4.38484057      -0.04014063
C        7.16405030       3.95021687       3.79583254
C        6.49134192       4.65780262       2.77983168
C        8.42316949       5.54277150      -0.90872380
N        7.10653155       5.94194183      -0.66484299
O        5.24777848       6.08007965       0.64295442
O        8.94588234       5.82416136      -2.00181944
C        8.56116436       2.48654766       5.89198235
C        9.24037808       1.77854838       6.90335246
C       11.20201338       1.65330259       5.47797828
C       10.54095432       1.36596805       6.70453845
C       12.54390425       1.22767262       5.27269318
C       13.18420819       1.50635451       4.08373279
C       12.51154110       2.21381599       3.06767795
C       11.25223259       0.62089280       7.77200820
C       13.25584122       0.48256969       6.33973997
N       12.56897888       0.22193392       7.52830278
O       10.72942293       0.33933309       8.86500265
O       14.42815405       0.08402721       6.22095600
H       12.15027576       3.37180393       0.75888762
H       10.94520130       4.60927155      -0.99333477
H        6.60538018       3.75546531       4.72393531
H        5.44984510       4.98973467       2.93608528
H        6.62687950       6.44414599      -1.38406664
H        7.52508581       2.79146899       6.10414063
H        8.73016383       1.55387544       7.85655122
H       14.22580120       1.17463970       3.92744215
H       13.07004919       2.40878693       2.13954116
H       13.04852419      -0.28021932       8.24763000
