80
Dimer: struct; Energy: -4906.06228 eV
C       -1.29972200       1.48833600      -0.03228100
C       -0.45010500       2.63965400       0.01843500
C        0.99654200       2.45238200       0.05441800
C       -0.76903400       0.15867800      -0.04877100
C        0.67752200      -0.02870400      -0.01297900
C        1.52709100       1.12265000       0.03785500
C        2.93347700       0.94084900       0.07277000
C        3.48023700      -0.37253000       0.05696900
C        3.79427800       2.07240500       0.12351100
C        5.26507800       1.88272800       0.16006300
C        1.24802600      -1.29258500      -0.02698300
C        2.64560500      -1.46904700       0.00777700
C        1.86805800       3.52983300       0.10418700
C        3.26457400       3.34539700       0.13880400
C        4.95087500      -0.56291500       0.09346700
N        5.75909100       0.57580800       0.14293500
O        6.06925500       2.83065500       0.20492200
O        5.48910000      -1.68427500       0.08194900
C       -1.02041300       3.90352800       0.03216900
C       -2.41794600       4.08003500      -0.00262400
C       -2.70602800       1.67000700      -0.06716000
C       -3.25245200       2.98347100      -0.05156500
C       -3.56691500       0.53850500      -0.11766500
C       -3.03687800      -0.73433100      -0.13279200
C       -1.64041100      -0.91883000      -0.09829200
C       -4.72314700       3.17392200      -0.08803700
C       -5.03773600       0.72818300      -0.15412500
N       -5.53143900       2.03522700      -0.13722100
O       -5.26133100       4.29529300      -0.07673500
O       -5.84203300      -0.21964700      -0.19870900
H        0.62972700      -2.20233100      -0.06573200
H        3.07286500      -2.48716200      -0.00439800
H        1.49989900       4.56697900       0.11841200
H        3.93550500       4.22152900       0.17822500
H        6.75033500       0.44779700       0.16755800
H       -0.40199700       4.81321100       0.07071000
H       -2.84532000       5.09816700       0.00933800
H       -3.70773700      -1.61056600      -0.17200800
H       -1.27202900      -1.95588300      -0.11238600
H       -6.52266300       2.16338500      -0.16179200
C        1.77223950       9.96750988       1.35132007
C        2.16113553      10.96483784       0.40050404
C        3.00000192      10.57869479      -0.72925250
C        2.18361633       8.60205610       1.22405205
C        3.02228540       8.21577921       0.09429911
C        3.41124967       9.21317435      -0.85642553
C        4.22668821       8.83801375      -1.95483654
C        4.64575663       7.48605778      -2.09891046
C        4.62372291       9.81462018      -2.91012462
C        5.47649502       9.42272007      -4.05893273
C        3.45077487       6.90850121      -0.08030646
C        4.26073241       6.53975909      -1.17281375
C        3.40758547      11.50127732      -1.68090101
C        4.21765526      11.12496236      -2.77069269
C        5.49846744       7.09348637      -3.24744284
N        5.86500218       8.08448377      -4.16173311
O        5.85641032      10.22911369      -4.92649960
O        5.89689421       5.92909687      -3.42833024
C        1.73252926      12.27202220       0.57481136
C        0.92256481      12.64079390       1.66725302
C        0.95688782      10.34254093       2.44971472
C        0.53782290      11.69448521       2.59338563
C        0.55999691       9.36605001       3.40518165
C        0.96636855       8.05584506       3.26552268
C        1.77632070       7.67945136       2.17572660
C       -0.31490414      12.08713432       3.74196251
C       -0.29271026       9.75797395       4.55405396
N       -0.68124705      11.09623617       4.65645420
O       -0.71348925      13.25148200       3.92270283
O       -0.67247227       8.95175074       5.42183737
H        3.17354582       6.11290620       0.62793471
H        4.58751686       5.49125207      -1.28727961
H        3.11283857      12.55989408      -1.61869124
H        4.52760186      11.88049649      -3.51393625
H        6.43973584       7.82018849      -4.93593399
H        2.00965564      13.06749446      -0.13361773
H        0.59553926      13.68928836       1.78169972
H        0.65664221       7.30024494       4.00883656
H        2.07128883       6.62091969       2.11337771
H       -1.25594151      11.36068160       5.43062997
