80
Dimer: struct; Energy: -4906.06228 eV
C       -1.29972200       1.48833600      -0.03228100
C       -0.45010500       2.63965400       0.01843500
C        0.99654200       2.45238200       0.05441800
C       -0.76903400       0.15867800      -0.04877100
C        0.67752200      -0.02870400      -0.01297900
C        1.52709100       1.12265000       0.03785500
C        2.93347700       0.94084900       0.07277000
C        3.48023700      -0.37253000       0.05696900
C        3.79427800       2.07240500       0.12351100
C        5.26507800       1.88272800       0.16006300
C        1.24802600      -1.29258500      -0.02698300
C        2.64560500      -1.46904700       0.00777700
C        1.86805800       3.52983300       0.10418700
C        3.26457400       3.34539700       0.13880400
C        4.95087500      -0.56291500       0.09346700
N        5.75909100       0.57580800       0.14293500
O        6.06925500       2.83065500       0.20492200
O        5.48910000      -1.68427500       0.08194900
C       -1.02041300       3.90352800       0.03216900
C       -2.41794600       4.08003500      -0.00262400
C       -2.70602800       1.67000700      -0.06716000
C       -3.25245200       2.98347100      -0.05156500
C       -3.56691500       0.53850500      -0.11766500
C       -3.03687800      -0.73433100      -0.13279200
C       -1.64041100      -0.91883000      -0.09829200
C       -4.72314700       3.17392200      -0.08803700
C       -5.03773600       0.72818300      -0.15412500
N       -5.53143900       2.03522700      -0.13722100
O       -5.26133100       4.29529300      -0.07673500
O       -5.84203300      -0.21964700      -0.19870900
H        0.62972700      -2.20233100      -0.06573200
H        3.07286500      -2.48716200      -0.00439800
H        1.49989900       4.56697900       0.11841200
H        3.93550500       4.22152900       0.17822500
H        6.75033500       0.44779700       0.16755800
H       -0.40199700       4.81321100       0.07071000
H       -2.84532000       5.09816700       0.00933800
H       -3.70773700      -1.61056600      -0.17200800
H       -1.27202900      -1.95588300      -0.11238600
H       -6.52266300       2.16338500      -0.16179200
C        5.25114812      12.72299461       1.75089406
C        6.13370647      12.85411764       0.63113882
C        6.32314141      11.71414083      -0.25977106
C        4.54945771      11.50442807       2.02037177
C        4.73866077      10.36450498       1.12947622
C        5.62132380      10.49564694       0.00979976
C        5.80558825       9.38758398      -0.85647695
C        5.11711887       8.16805163      -0.60565564
C        6.67854980       9.49821237      -1.97436401
C        6.87155071       8.33967630      -2.88051570
C        4.08542804       9.15964129       1.34079731
C        4.27107998       8.06119467       0.47794011
C        7.16526678      11.78286277      -1.35932547
C        7.34587685      10.68008133      -2.21765234
C        5.30962706       7.00919098      -1.51138036
N        6.17594349       7.16147693      -2.59703919
O        7.62032765       8.37370909      -3.87321578
O        4.73680020       5.91756455      -1.34558476
C        6.78676059      14.05892638       0.41954123
C        6.60111818      15.15738037       1.28232712
C        5.06684980      13.83090683       2.61719776
C        5.75527160      15.05032533       2.36599261
C        4.19408882      13.72029777       3.73524421
C        3.52704694      12.53824396       3.97831507
C        3.70751883      11.43549353       3.11999018
C        5.56281218      16.20925979       3.27173863
C        4.00115657      14.87881976       4.64145910
N        4.69672036      16.05695419       4.35758820
O        6.13548421      17.30093364       3.10579391
O        3.25262983      14.84484516       5.63434206
H        3.39907490       9.01863565       2.18960218
H        3.73808841       7.11342244       0.67004754
H        7.72227784      12.70101395      -1.60047336
H        8.02272639      10.76260283      -3.08619975
H        6.30590166       6.38057184      -3.20765847
H        7.47293557      14.19987638      -0.42942515
H        7.13393164      16.10531093       1.09017652
H        2.85031033      12.45554071       4.84697219
H        3.15070745      10.51720487       3.36100860
H        4.56689385      16.83792315       4.96815005
