80
Dimer: struct; Energy: -4906.06228 eV
C       -1.29972200       1.48833600      -0.03228100
C       -0.45010500       2.63965400       0.01843500
C        0.99654200       2.45238200       0.05441800
C       -0.76903400       0.15867800      -0.04877100
C        0.67752200      -0.02870400      -0.01297900
C        1.52709100       1.12265000       0.03785500
C        2.93347700       0.94084900       0.07277000
C        3.48023700      -0.37253000       0.05696900
C        3.79427800       2.07240500       0.12351100
C        5.26507800       1.88272800       0.16006300
C        1.24802600      -1.29258500      -0.02698300
C        2.64560500      -1.46904700       0.00777700
C        1.86805800       3.52983300       0.10418700
C        3.26457400       3.34539700       0.13880400
C        4.95087500      -0.56291500       0.09346700
N        5.75909100       0.57580800       0.14293500
O        6.06925500       2.83065500       0.20492200
O        5.48910000      -1.68427500       0.08194900
C       -1.02041300       3.90352800       0.03216900
C       -2.41794600       4.08003500      -0.00262400
C       -2.70602800       1.67000700      -0.06716000
C       -3.25245200       2.98347100      -0.05156500
C       -3.56691500       0.53850500      -0.11766500
C       -3.03687800      -0.73433100      -0.13279200
C       -1.64041100      -0.91883000      -0.09829200
C       -4.72314700       3.17392200      -0.08803700
C       -5.03773600       0.72818300      -0.15412500
N       -5.53143900       2.03522700      -0.13722100
O       -5.26133100       4.29529300      -0.07673500
O       -5.84203300      -0.21964700      -0.19870900
H        0.62972700      -2.20233100      -0.06573200
H        3.07286500      -2.48716200      -0.00439800
H        1.49989900       4.56697900       0.11841200
H        3.93550500       4.22152900       0.17822500
H        6.75033500       0.44779700       0.16755800
H       -0.40199700       4.81321100       0.07071000
H       -2.84532000       5.09816700       0.00933800
H       -3.70773700      -1.61056600      -0.17200800
H       -1.27202900      -1.95588300      -0.11238600
H       -6.52266300       2.16338500      -0.16179200
C        2.06813287       3.42454492       9.84024892
C        1.34242678       4.57816766       9.40154680
C        1.59931559       5.11291303       8.06842690
C        3.03862769       2.78130228       9.00701979
C        3.29545495       3.31581780       7.67388429
C        2.56980253       4.46951603       7.23527675
C        2.81931108       4.98950661       5.93930317
C        3.77980152       4.36433807       5.09622371
C        2.10844232       6.13518215       5.48535917
C        2.36908451       6.67930575       4.13016132
C        4.22360696       2.73440314       6.82326278
C        4.46860937       3.25391187       5.53653878
C        0.92698588       6.22745720       7.59022004
C        1.17748847       6.74121929       6.30228802
C        4.04089856       4.90789620       3.74096448
N        3.32046055       6.03438986       3.33558646
O        1.78087668       7.67694489       3.67628218
O        4.86720465       4.40666254       2.95786159
C        0.41410424       5.15949646      10.25189461
C        0.16904986       4.64001675      11.53857754
C        1.81874743       2.90452708      11.13612924
C        0.85807530       3.52977070      11.97885669
C        2.52973699       1.75899518      11.59024868
C        3.46071866       1.15330848      10.77312183
C        3.71118089       1.66693558       9.48517537
C        0.59694561       2.98624666      13.33419372
C        2.26915702       1.21492002      12.94549839
N        1.31755718       1.85991382      13.73974845
O       -0.22951660       3.48737164      14.11718583
O        2.85748003       0.21746177      13.39960871
H        4.80158307       1.84692066       7.12284814
H        5.21345390       2.77083378       4.87995696
H        0.17406094       6.75011355       8.19960464
H        0.62747837       7.63031218       5.94688342
H        3.49623915       6.40097827       2.42220121
H       -0.16396459       6.04686037       9.95211363
H       -0.57596352       5.12292397      12.19519012
H        4.01095033       0.26430710      11.12850770
H        4.46414649       1.14451873       8.87566221
H        1.14171175       1.49346212      14.65317319
