80
Dimer: struct; Energy: -4906.06228 eV
C       -1.29972200       1.48833600      -0.03228100
C       -0.45010500       2.63965400       0.01843500
C        0.99654200       2.45238200       0.05441800
C       -0.76903400       0.15867800      -0.04877100
C        0.67752200      -0.02870400      -0.01297900
C        1.52709100       1.12265000       0.03785500
C        2.93347700       0.94084900       0.07277000
C        3.48023700      -0.37253000       0.05696900
C        3.79427800       2.07240500       0.12351100
C        5.26507800       1.88272800       0.16006300
C        1.24802600      -1.29258500      -0.02698300
C        2.64560500      -1.46904700       0.00777700
C        1.86805800       3.52983300       0.10418700
C        3.26457400       3.34539700       0.13880400
C        4.95087500      -0.56291500       0.09346700
N        5.75909100       0.57580800       0.14293500
O        6.06925500       2.83065500       0.20492200
O        5.48910000      -1.68427500       0.08194900
C       -1.02041300       3.90352800       0.03216900
C       -2.41794600       4.08003500      -0.00262400
C       -2.70602800       1.67000700      -0.06716000
C       -3.25245200       2.98347100      -0.05156500
C       -3.56691500       0.53850500      -0.11766500
C       -3.03687800      -0.73433100      -0.13279200
C       -1.64041100      -0.91883000      -0.09829200
C       -4.72314700       3.17392200      -0.08803700
C       -5.03773600       0.72818300      -0.15412500
N       -5.53143900       2.03522700      -0.13722100
O       -5.26133100       4.29529300      -0.07673500
O       -5.84203300      -0.21964700      -0.19870900
H        0.62972700      -2.20233100      -0.06573200
H        3.07286500      -2.48716200      -0.00439800
H        1.49989900       4.56697900       0.11841200
H        3.93550500       4.22152900       0.17822500
H        6.75033500       0.44779700       0.16755800
H       -0.40199700       4.81321100       0.07071000
H       -2.84532000       5.09816700       0.00933800
H       -3.70773700      -1.61056600      -0.17200800
H       -1.27202900      -1.95588300      -0.11238600
H       -6.52266300       2.16338500      -0.16179200
C        8.72514923       1.24469297       6.03639598
C        9.26562965       1.70158300       7.28101910
C        9.94576544       2.99169007       7.32783974
C        8.83355111       2.01871433       4.83679937
C        9.51346633       3.30884941       4.88353385
C       10.05403217       3.76563845       6.12816229
C       10.71520421       5.01981064       6.17394333
C       10.83309033       5.80384749       4.99260948
C       11.25905066       5.49096594       7.40122312
C       11.95057959       6.80246133       7.44953084
C        9.64837053       4.10153532       3.75370377
C       10.30584110       5.34686700       3.80325796
C       10.48875291       3.48497377       8.50459525
C       11.14488178       4.73126013       8.54627395
C       11.52443255       7.11538642       5.04021459
N       12.04362002       7.53954966       6.26613472
O       12.44645651       7.26865681       8.49070635
O       11.65966904       7.84627578       4.04282855
C        9.13057648       0.90918617       8.41092407
C        8.47310202      -0.33610140       8.36142706
C        8.06403394      -0.00939521       5.99049529
C        7.94612816      -0.79306936       7.17200412
C        7.52036129      -0.48073964       4.76321030
C        7.63484418       0.27914967       3.61833414
C        8.29084143       1.52545808       3.65996540
C        7.25478870      -2.10468433       7.12444893
C        6.82890405      -1.79229325       4.71488316
N        6.73581967      -2.52904272       5.89849117
O        7.11938129      -2.83544731       8.12189215
O        6.33322367      -2.25873417       3.67373143
H        9.24686697       3.78624913       2.77860252
H       10.39886248       5.95759495       2.88804439
H       10.42646065       2.92060836       9.44747732
H       11.56812575       5.09987809       9.49721824
H       12.50964903       8.42347605       6.29852079
H        9.53194440       1.22467854       9.38602164
H        8.37984162      -0.94684094       9.27667791
H        7.21180501      -0.08947027       2.66726387
H        8.35336044       2.08994045       2.71718553
H        6.26985917      -3.41300765       5.86624124
