80
Dimer: struct; Energy: -4906.06228 eV
C       -1.29972200       1.48833600      -0.03228100
C       -0.45010500       2.63965400       0.01843500
C        0.99654200       2.45238200       0.05441800
C       -0.76903400       0.15867800      -0.04877100
C        0.67752200      -0.02870400      -0.01297900
C        1.52709100       1.12265000       0.03785500
C        2.93347700       0.94084900       0.07277000
C        3.48023700      -0.37253000       0.05696900
C        3.79427800       2.07240500       0.12351100
C        5.26507800       1.88272800       0.16006300
C        1.24802600      -1.29258500      -0.02698300
C        2.64560500      -1.46904700       0.00777700
C        1.86805800       3.52983300       0.10418700
C        3.26457400       3.34539700       0.13880400
C        4.95087500      -0.56291500       0.09346700
N        5.75909100       0.57580800       0.14293500
O        6.06925500       2.83065500       0.20492200
O        5.48910000      -1.68427500       0.08194900
C       -1.02041300       3.90352800       0.03216900
C       -2.41794600       4.08003500      -0.00262400
C       -2.70602800       1.67000700      -0.06716000
C       -3.25245200       2.98347100      -0.05156500
C       -3.56691500       0.53850500      -0.11766500
C       -3.03687800      -0.73433100      -0.13279200
C       -1.64041100      -0.91883000      -0.09829200
C       -4.72314700       3.17392200      -0.08803700
C       -5.03773600       0.72818300      -0.15412500
N       -5.53143900       2.03522700      -0.13722100
O       -5.26133100       4.29529300      -0.07673500
O       -5.84203300      -0.21964700      -0.19870900
H        0.62972700      -2.20233100      -0.06573200
H        3.07286500      -2.48716200      -0.00439800
H        1.49989900       4.56697900       0.11841200
H        3.93550500       4.22152900       0.17822500
H        6.75033500       0.44779700       0.16755800
H       -0.40199700       4.81321100       0.07071000
H       -2.84532000       5.09816700       0.00933800
H       -3.70773700      -1.61056600      -0.17200800
H       -1.27202900      -1.95588300      -0.11238600
H       -6.52266300       2.16338500      -0.16179200
C        6.51658175       6.70574524       1.44603316
C        7.29516526       7.21721008       0.35875871
C        8.31096224       6.36401978      -0.24900435
C        6.70718067       5.38045242       1.95314564
C        7.72276581       4.52715283       1.34537598
C        8.50140302       5.03871145       0.25817798
C        9.48891623       4.20944844      -0.33286581
C        9.69335060       2.88936586       0.15677602
C       10.27283381       4.69967694      -1.41412491
C       11.30566037       3.83280416      -2.03248317
C        7.95143996       3.23526071       1.79458528
C        8.93335090       2.41455053       1.20478881
C        9.09479501       6.80560746      -1.30424093
C       10.07484071       5.97903825      -1.88884821
C       10.72593516       2.02199189      -0.46111248
N       11.47299946       2.54353158      -1.52047150
O       12.02226651       4.20313223      -2.97937880
O       10.95193752       0.86021048      -0.07841945
C        7.06643831       8.50890479      -0.09071443
C        6.08454224       9.32961635       0.49901128
C        5.52913327       7.53487793       2.03713546
C        5.32480093       8.85478927       1.54714318
C        4.74532780       7.04481775       3.11855303
C        4.94369078       5.76547356       3.59311611
C        5.92361202       4.93883754       3.00849874
C        4.29220306       9.72225305       2.16503784
C        3.71255116       7.91173400       3.73697855
N        3.54528822       9.20087288       3.22459542
O        4.06607938      10.88394711       1.78218323
O        2.99606613       7.54163894       4.68404874
H        7.37435279       2.80528407       2.62736581
H        9.09427488       1.38957052       1.58264719
H        8.97918817       7.81713483      -1.72240678
H       10.68501137       6.35645614      -2.72822727
H       12.16904111       1.95915798      -1.93711439
H        7.64345360       8.93870042      -0.92364659
H        5.92339110      10.35459165       0.12106905
H        4.33370122       5.38801006       4.43264664
H        6.03947900       3.92731949       3.42657641
H        2.84931586       9.78537161       3.64117308
