80
Dimer: struct; Energy: -4906.06228 eV
C       -1.29972200       1.48833600      -0.03228100
C       -0.45010500       2.63965400       0.01843500
C        0.99654200       2.45238200       0.05441800
C       -0.76903400       0.15867800      -0.04877100
C        0.67752200      -0.02870400      -0.01297900
C        1.52709100       1.12265000       0.03785500
C        2.93347700       0.94084900       0.07277000
C        3.48023700      -0.37253000       0.05696900
C        3.79427800       2.07240500       0.12351100
C        5.26507800       1.88272800       0.16006300
C        1.24802600      -1.29258500      -0.02698300
C        2.64560500      -1.46904700       0.00777700
C        1.86805800       3.52983300       0.10418700
C        3.26457400       3.34539700       0.13880400
C        4.95087500      -0.56291500       0.09346700
N        5.75909100       0.57580800       0.14293500
O        6.06925500       2.83065500       0.20492200
O        5.48910000      -1.68427500       0.08194900
C       -1.02041300       3.90352800       0.03216900
C       -2.41794600       4.08003500      -0.00262400
C       -2.70602800       1.67000700      -0.06716000
C       -3.25245200       2.98347100      -0.05156500
C       -3.56691500       0.53850500      -0.11766500
C       -3.03687800      -0.73433100      -0.13279200
C       -1.64041100      -0.91883000      -0.09829200
C       -4.72314700       3.17392200      -0.08803700
C       -5.03773600       0.72818300      -0.15412500
N       -5.53143900       2.03522700      -0.13722100
O       -5.26133100       4.29529300      -0.07673500
O       -5.84203300      -0.21964700      -0.19870900
H        0.62972700      -2.20233100      -0.06573200
H        3.07286500      -2.48716200      -0.00439800
H        1.49989900       4.56697900       0.11841200
H        3.93550500       4.22152900       0.17822500
H        6.75033500       0.44779700       0.16755800
H       -0.40199700       4.81321100       0.07071000
H       -2.84532000       5.09816700       0.00933800
H       -3.70773700      -1.61056600      -0.17200800
H       -1.27202900      -1.95588300      -0.11238600
H       -6.52266300       2.16338500      -0.16179200
C        7.87518025       6.67284502       3.90841719
C        8.59530309       7.22637517       5.01520613
C        7.89386940       7.45648444       6.27385367
C        6.48612607       6.33887822       4.00268664
C        5.78467017       6.56875893       5.26126990
C        6.50481563       7.12240205       6.36799364
C        5.82315260       7.34612532       7.59170752
C        4.44281681       7.02067293       7.70534922
C        6.52137409       7.89552422       8.70284188
C        5.80888835       8.12966925       9.98272713
C        4.44001328       6.26449704       5.41089825
C        3.76639715       6.48818009       6.62818267
C        8.53957933       7.99009875       7.37894742
C        7.85918105       8.21099087       8.59292303
C        3.72976294       7.25451967       8.98488998
N        4.45379800       7.79569832      10.05037070
O        6.36316954       8.60672321      10.98894304
O        2.52491536       6.99105415       9.14673961
C        9.93994509       7.53041709       4.86582829
C       10.61359281       7.30672524       3.64860832
C        8.55668860       6.44912919       2.68472807
C        9.93702705       6.77447453       2.57147507
C        7.85849246       5.89995240       1.57346709
C        6.52066736       5.58474777       1.68369221
C        5.84025699       5.80550243       2.89763592
C       10.65015515       6.54066251       1.29189474
C        8.57096544       5.66588995       0.29353798
N        9.92610725       5.99974453       0.22627581
O       11.85504774       6.80393682       1.13014447
O        8.01675173       5.18910189      -0.71283343
H        3.85146570       5.83768125       4.58453698
H        2.69512278       6.23656376       6.71938537
H        9.60615616       8.25992367       7.34695359
H        8.39815623       8.63728048       9.45726823
H        3.97346054       7.95343438      10.91289782
H       10.52844149       7.95703960       5.69233428
H       11.68497307       7.55812775       3.55736407
H        5.98152571       5.15863047       0.81932667
H        4.77365308       5.53586795       2.92982605
H       10.40655818       5.84210611      -0.63620332
