80
Dimer: struct; Energy: -4906.06228 eV
C       -1.29972200       1.48833600      -0.03228100
C       -0.45010500       2.63965400       0.01843500
C        0.99654200       2.45238200       0.05441800
C       -0.76903400       0.15867800      -0.04877100
C        0.67752200      -0.02870400      -0.01297900
C        1.52709100       1.12265000       0.03785500
C        2.93347700       0.94084900       0.07277000
C        3.48023700      -0.37253000       0.05696900
C        3.79427800       2.07240500       0.12351100
C        5.26507800       1.88272800       0.16006300
C        1.24802600      -1.29258500      -0.02698300
C        2.64560500      -1.46904700       0.00777700
C        1.86805800       3.52983300       0.10418700
C        3.26457400       3.34539700       0.13880400
C        4.95087500      -0.56291500       0.09346700
N        5.75909100       0.57580800       0.14293500
O        6.06925500       2.83065500       0.20492200
O        5.48910000      -1.68427500       0.08194900
C       -1.02041300       3.90352800       0.03216900
C       -2.41794600       4.08003500      -0.00262400
C       -2.70602800       1.67000700      -0.06716000
C       -3.25245200       2.98347100      -0.05156500
C       -3.56691500       0.53850500      -0.11766500
C       -3.03687800      -0.73433100      -0.13279200
C       -1.64041100      -0.91883000      -0.09829200
C       -4.72314700       3.17392200      -0.08803700
C       -5.03773600       0.72818300      -0.15412500
N       -5.53143900       2.03522700      -0.13722100
O       -5.26133100       4.29529300      -0.07673500
O       -5.84203300      -0.21964700      -0.19870900
H        0.62972700      -2.20233100      -0.06573200
H        3.07286500      -2.48716200      -0.00439800
H        1.49989900       4.56697900       0.11841200
H        3.93550500       4.22152900       0.17822500
H        6.75033500       0.44779700       0.16755800
H       -0.40199700       4.81321100       0.07071000
H       -2.84532000       5.09816700       0.00933800
H       -3.70773700      -1.61056600      -0.17200800
H       -1.27202900      -1.95588300      -0.11238600
H       -6.52266300       2.16338500      -0.16179200
C        6.08625718       3.74263453       9.24721516
C        6.00306910       5.13998022       8.94645099
C        6.13960485       5.57646422       7.56081294
C        6.29956162       2.76205353       8.22601283
C        6.43592108       3.19837791       6.84039222
C        6.35284158       4.59575008       6.53969902
C        6.48547218       5.02031229       5.19272155
C        6.69777587       4.06117221       4.16357724
C        6.40588596       6.40448594       4.87381508
C        6.54455975       6.84890449       3.46533086
C        6.64362989       2.29395610       5.80988538
C        6.77485142       2.71965539       4.47304763
C        6.06785641       6.91618096       7.21020064
C        6.20010105       7.33423033       5.87108975
C        6.83649635       4.50487854       2.75494812
N        6.75192670       5.87351476       2.48655820
O        6.48436930       8.04324892       3.12299029
O        7.02328281       3.71586983       1.81163315
C        5.79510469       6.04444518       9.97674768
C        5.66384601       5.61880168      11.31355826
C        5.95368596       3.31799259      10.59407133
C        5.74118279       4.27732455      11.62292247
C        6.03349256       1.93385986      10.91310336
C        6.23943418       1.00441418       9.91560734
C        6.37157050       1.42237252       8.57650278
C        5.60247505       3.83365713      13.03163286
C        5.89490837       1.48944438      12.32161705
N        5.68731692       2.46504822      13.30013396
O        5.41547576       4.62266722      13.97489158
O        5.95534943       0.29517014      12.66413567
H        6.71332767       1.21200466       5.99950668
H        6.93967052       1.97757115       3.67217114
H        5.90511399       7.70022861       7.96531614
H        6.13883375       8.40781657       5.62015426
H        6.84540194       6.17286792       1.53723853
H        5.72521708       7.12636378       9.78697207
H        5.49880838       6.36082865      12.11452202
H        6.30092314      -0.06921075      10.16645807
H        6.53443918       0.63851691       7.82123657
H        5.59387156       2.16584210      14.24950053
