80
Dimer: struct; Energy: -4906.06228 eV
C       -1.29972200       1.48833600      -0.03228100
C       -0.45010500       2.63965400       0.01843500
C        0.99654200       2.45238200       0.05441800
C       -0.76903400       0.15867800      -0.04877100
C        0.67752200      -0.02870400      -0.01297900
C        1.52709100       1.12265000       0.03785500
C        2.93347700       0.94084900       0.07277000
C        3.48023700      -0.37253000       0.05696900
C        3.79427800       2.07240500       0.12351100
C        5.26507800       1.88272800       0.16006300
C        1.24802600      -1.29258500      -0.02698300
C        2.64560500      -1.46904700       0.00777700
C        1.86805800       3.52983300       0.10418700
C        3.26457400       3.34539700       0.13880400
C        4.95087500      -0.56291500       0.09346700
N        5.75909100       0.57580800       0.14293500
O        6.06925500       2.83065500       0.20492200
O        5.48910000      -1.68427500       0.08194900
C       -1.02041300       3.90352800       0.03216900
C       -2.41794600       4.08003500      -0.00262400
C       -2.70602800       1.67000700      -0.06716000
C       -3.25245200       2.98347100      -0.05156500
C       -3.56691500       0.53850500      -0.11766500
C       -3.03687800      -0.73433100      -0.13279200
C       -1.64041100      -0.91883000      -0.09829200
C       -4.72314700       3.17392200      -0.08803700
C       -5.03773600       0.72818300      -0.15412500
N       -5.53143900       2.03522700      -0.13722100
O       -5.26133100       4.29529300      -0.07673500
O       -5.84203300      -0.21964700      -0.19870900
H        0.62972700      -2.20233100      -0.06573200
H        3.07286500      -2.48716200      -0.00439800
H        1.49989900       4.56697900       0.11841200
H        3.93550500       4.22152900       0.17822500
H        6.75033500       0.44779700       0.16755800
H       -0.40199700       4.81321100       0.07071000
H       -2.84532000       5.09816700       0.00933800
H       -3.70773700      -1.61056600      -0.17200800
H       -1.27202900      -1.95588300      -0.11238600
H       -6.52266300       2.16338500      -0.16179200
C        7.60540407       9.79545684       1.48267727
C        7.62905459       8.59751969       0.69887784
C        8.16621915       7.37528837       1.28773941
C        8.09409955       9.82705879       2.82806573
C        8.63108850       8.60491274       3.41706424
C        8.65482267       7.40702901       2.63317722
C        9.17691124       6.21869960       3.20544375
C        9.66719739       6.22970526       4.54098069
C        9.20911320       5.01832079       2.44253763
C        9.75503467       3.77539862       3.04060141
C        9.11800337       8.57584071       4.71519168
C        9.63581877       7.39334672       5.28012471
C        8.21459520       6.18592361       0.57641039
C        8.73396006       5.00743048       1.14814985
C       10.21319731       4.98719073       5.13964289
N       10.22581460       3.83110799       4.35500045
O        9.81039806       2.69555021       2.42566981
O       10.65615864       4.93273878       6.30071451
C        7.14195648       8.62636292      -0.59909012
C        6.62411405       9.80879142      -1.16403772
C        7.08340656      10.98377172       0.91053760
C        6.59301665      10.97238888      -0.42490174
C        7.05137960      12.18425530       1.67328751
C        7.52675029      12.19481973       2.96757906
C        8.04600861      11.01637109       3.53940055
C        6.04700582      12.21493457      -1.02364874
C        6.50553538      13.42721477       1.07518439
N        6.03461717      13.37113290      -0.23915320
O        5.60385713      12.26930127      -2.18464235
O        6.45036106      14.50718993       1.68989776
H        9.11728285       9.47495832       5.35003018
H       10.01702960       7.39881712       6.31641901
H        7.84911430       6.12035456      -0.45970719
H        8.76041676       4.07404560       0.55874132
H       10.59377264       2.99350848       4.75822708
H        7.14253966       7.72712183      -1.23376487
H        6.24266812       9.80337355      -2.20030701
H        7.50052984      13.12822138       3.55702906
H        8.41165623      11.08173038       4.57545694
H        5.66667584      14.20866838      -0.64252242
