80
Dimer: struct; Energy: -4906.06228 eV
C       -1.29972200       1.48833600      -0.03228100
C       -0.45010500       2.63965400       0.01843500
C        0.99654200       2.45238200       0.05441800
C       -0.76903400       0.15867800      -0.04877100
C        0.67752200      -0.02870400      -0.01297900
C        1.52709100       1.12265000       0.03785500
C        2.93347700       0.94084900       0.07277000
C        3.48023700      -0.37253000       0.05696900
C        3.79427800       2.07240500       0.12351100
C        5.26507800       1.88272800       0.16006300
C        1.24802600      -1.29258500      -0.02698300
C        2.64560500      -1.46904700       0.00777700
C        1.86805800       3.52983300       0.10418700
C        3.26457400       3.34539700       0.13880400
C        4.95087500      -0.56291500       0.09346700
N        5.75909100       0.57580800       0.14293500
O        6.06925500       2.83065500       0.20492200
O        5.48910000      -1.68427500       0.08194900
C       -1.02041300       3.90352800       0.03216900
C       -2.41794600       4.08003500      -0.00262400
C       -2.70602800       1.67000700      -0.06716000
C       -3.25245200       2.98347100      -0.05156500
C       -3.56691500       0.53850500      -0.11766500
C       -3.03687800      -0.73433100      -0.13279200
C       -1.64041100      -0.91883000      -0.09829200
C       -4.72314700       3.17392200      -0.08803700
C       -5.03773600       0.72818300      -0.15412500
N       -5.53143900       2.03522700      -0.13722100
O       -5.26133100       4.29529300      -0.07673500
O       -5.84203300      -0.21964700      -0.19870900
H        0.62972700      -2.20233100      -0.06573200
H        3.07286500      -2.48716200      -0.00439800
H        1.49989900       4.56697900       0.11841200
H        3.93550500       4.22152900       0.17822500
H        6.75033500       0.44779700       0.16755800
H       -0.40199700       4.81321100       0.07071000
H       -2.84532000       5.09816700       0.00933800
H       -3.70773700      -1.61056600      -0.17200800
H       -1.27202900      -1.95588300      -0.11238600
H       -6.52266300       2.16338500      -0.16179200
C        2.74163771       5.37210632      10.05844878
C        3.22941327       6.27670359       9.06158717
C        3.40157276       5.79883950       7.69368361
C        2.41812285       4.01191183       9.75006402
C        2.59005767       3.53401077       8.38223131
C        3.07794916       4.43862167       7.38543212
C        3.24532781       3.97431882       6.05554510
C        2.92921968       2.62610389       5.72912094
C        3.72898738       4.85796688       5.05094990
C        3.90419622       4.37281501       3.66008845
C        2.29286636       2.22736107       8.02528594
C        2.46045145       1.76992190       6.70307612
C        3.87034428       6.62940959       6.68704349
C        4.03538615       6.16468027       5.36709662
C        3.10415455       2.14032890       4.33851850
N        3.58169168       3.04167840       3.38359567
O        4.32258162       5.09572166       2.73833024
O        2.84557414       0.97433096       3.99088071
C        3.52637211       7.58337604       9.41829420
C        3.35877455       8.04085691      10.74044626
C        2.57426687       5.83626092      11.38828522
C        2.89024796       7.18454105      11.71433233
C        2.09083538       4.95262106      12.39299839
C        1.78468261       3.64594574      12.07653416
C        1.94958899       3.18119656      10.75662344
C        2.71534901       7.67038331      13.10498441
C        1.91571141       5.43775465      13.78389684
N        2.23807948       6.76900317      14.06002837
O        2.97373286       8.83643849      13.45254131
O        1.49759886       4.71489377      14.70580635
H        1.91570827       1.50153753       8.76174020
H        2.21593028       0.72409469       6.44673195
H        4.13003487       7.68079882       6.88340214
H        4.41058361       6.84793571       4.58498501
H        3.69971214       2.71454499       2.44625226
H        3.90333024       8.30916947       8.68169840
H        3.60308322       9.08677750      10.99685956
H        1.40966005       2.96252609      12.85862951
H        1.69007871       2.12981692      10.56005758
H        2.12015283       7.09625831      14.99733867
