80
Dimer: struct; Energy: -4906.06228 eV
C       -1.29972200       1.48833600      -0.03228100
C       -0.45010500       2.63965400       0.01843500
C        0.99654200       2.45238200       0.05441800
C       -0.76903400       0.15867800      -0.04877100
C        0.67752200      -0.02870400      -0.01297900
C        1.52709100       1.12265000       0.03785500
C        2.93347700       0.94084900       0.07277000
C        3.48023700      -0.37253000       0.05696900
C        3.79427800       2.07240500       0.12351100
C        5.26507800       1.88272800       0.16006300
C        1.24802600      -1.29258500      -0.02698300
C        2.64560500      -1.46904700       0.00777700
C        1.86805800       3.52983300       0.10418700
C        3.26457400       3.34539700       0.13880400
C        4.95087500      -0.56291500       0.09346700
N        5.75909100       0.57580800       0.14293500
O        6.06925500       2.83065500       0.20492200
O        5.48910000      -1.68427500       0.08194900
C       -1.02041300       3.90352800       0.03216900
C       -2.41794600       4.08003500      -0.00262400
C       -2.70602800       1.67000700      -0.06716000
C       -3.25245200       2.98347100      -0.05156500
C       -3.56691500       0.53850500      -0.11766500
C       -3.03687800      -0.73433100      -0.13279200
C       -1.64041100      -0.91883000      -0.09829200
C       -4.72314700       3.17392200      -0.08803700
C       -5.03773600       0.72818300      -0.15412500
N       -5.53143900       2.03522700      -0.13722100
O       -5.26133100       4.29529300      -0.07673500
O       -5.84203300      -0.21964700      -0.19870900
H        0.62972700      -2.20233100      -0.06573200
H        3.07286500      -2.48716200      -0.00439800
H        1.49989900       4.56697900       0.11841200
H        3.93550500       4.22152900       0.17822500
H        6.75033500       0.44779700       0.16755800
H       -0.40199700       4.81321100       0.07071000
H       -2.84532000       5.09816700       0.00933800
H       -3.70773700      -1.61056600      -0.17200800
H       -1.27202900      -1.95588300      -0.11238600
H       -6.52266300       2.16338500      -0.16179200
C        5.94547476       8.46895466       2.97286305
C        6.93209583       7.47029623       3.25431375
C        7.70124785       7.56200795       4.49090068
C        5.69279657       9.55477131       3.87122155
C        6.46171542       9.64648065       5.10785834
C        7.44840848       8.64785694       5.38920351
C        8.19621242       8.73676166       6.59131726
C        7.95976409       9.80820197       7.49700396
C        9.18113937       7.75418812       6.88870613
C        9.96340421       7.84680311       8.14570662
C        6.26016698      10.67554259       6.01531404
C        7.00504445      10.76036692       7.20843455
C        8.66951350       6.62410419       4.81604056
C        9.41043859       6.71566897       6.01107940
C        8.74161010       9.90139762       8.75413803
N        9.69875028       8.91520423       9.00643854
O       10.83724659       7.01999247       8.46203280
O        8.58159991      10.81299381       9.58519530
C        7.13355906       6.44108588       2.34714455
C        6.38870234       6.35620328       1.15406150
C        5.19768899       8.38017431       1.77084310
C        5.43421475       7.30853319       0.86549734
C        4.21290435       9.36283194       1.47325756
C        3.98397625      10.40128693       2.35102899
C        4.72476411      10.49284614       3.54610240
C        4.65238194       7.21529878      -0.39171799
C        3.43069392       9.27026598       0.21619754
N        3.69541355       8.20162305      -0.64421993
O        4.81226512       6.30357669      -1.22264691
O        2.55702005      10.09714693      -0.10038572
H        5.51156756      11.46221099       5.83591323
H        6.82374234      11.59077006       7.91328748
H        8.89352083       5.77515843       4.15231846
H       10.17564952       5.95469709       6.24492492
H       10.22587611       8.97776717       9.85365870
H        7.88205013       5.65435396       2.52675783
H        6.56979421       5.52567994       0.44920611
H        3.21891100      11.16245011       2.11718446
H        4.50101484      11.34176914       4.20991629
H        3.16839616       8.13896192      -1.49149762
