80
Dimer: struct; Energy: -4906.06228 eV
C       -1.29972200       1.48833600      -0.03228100
C       -0.45010500       2.63965400       0.01843500
C        0.99654200       2.45238200       0.05441800
C       -0.76903400       0.15867800      -0.04877100
C        0.67752200      -0.02870400      -0.01297900
C        1.52709100       1.12265000       0.03785500
C        2.93347700       0.94084900       0.07277000
C        3.48023700      -0.37253000       0.05696900
C        3.79427800       2.07240500       0.12351100
C        5.26507800       1.88272800       0.16006300
C        1.24802600      -1.29258500      -0.02698300
C        2.64560500      -1.46904700       0.00777700
C        1.86805800       3.52983300       0.10418700
C        3.26457400       3.34539700       0.13880400
C        4.95087500      -0.56291500       0.09346700
N        5.75909100       0.57580800       0.14293500
O        6.06925500       2.83065500       0.20492200
O        5.48910000      -1.68427500       0.08194900
C       -1.02041300       3.90352800       0.03216900
C       -2.41794600       4.08003500      -0.00262400
C       -2.70602800       1.67000700      -0.06716000
C       -3.25245200       2.98347100      -0.05156500
C       -3.56691500       0.53850500      -0.11766500
C       -3.03687800      -0.73433100      -0.13279200
C       -1.64041100      -0.91883000      -0.09829200
C       -4.72314700       3.17392200      -0.08803700
C       -5.03773600       0.72818300      -0.15412500
N       -5.53143900       2.03522700      -0.13722100
O       -5.26133100       4.29529300      -0.07673500
O       -5.84203300      -0.21964700      -0.19870900
H        0.62972700      -2.20233100      -0.06573200
H        3.07286500      -2.48716200      -0.00439800
H        1.49989900       4.56697900       0.11841200
H        3.93550500       4.22152900       0.17822500
H        6.75033500       0.44779700       0.16755800
H       -0.40199700       4.81321100       0.07071000
H       -2.84532000       5.09816700       0.00933800
H       -3.70773700      -1.61056600      -0.17200800
H       -1.27202900      -1.95588300      -0.11238600
H       -6.52266300       2.16338500      -0.16179200
C        8.03283404       7.12060546       1.92865068
C        8.11247125       7.12918752       3.35817457
C        8.26011099       5.86277846       4.06779681
C        8.09417794       5.90390657       1.17647198
C        8.24199337       4.63752179       1.88593483
C        8.32150803       4.64615263       3.31546991
C        8.46510945       3.41514976       4.00554439
C        8.52813085       2.19534556       3.27597836
C        8.54581588       3.40300075       5.42586509
C        8.69596482       2.11588290       6.14791009
C        8.30716965       3.42829245       1.21022591
C        8.44988285       2.20750708       1.89934867
C        8.34220856       5.80980431       5.45104353
C        8.48478568       4.58510423       6.13313838
C        8.67829993       0.90793776       3.99735558
N        8.75361140       0.94203430       5.39217308
O        8.77195783       2.03939885       7.38712510
O        8.73936252      -0.19051950       3.41689881
C        8.04758784       8.33828181       4.03396927
C        7.90491409       9.55906058       3.34490675
C        7.88920495       8.35146352       1.23852273
C        7.82643265       9.57107041       1.96833692
C        7.80825439       8.36369136      -0.18178408
C        7.86916571       7.18140092      -0.88872019
C        8.01185141       5.95671297      -0.20671547
C        7.67623160      10.85856065       1.24698119
C        7.65801154       9.65081797      -0.90383232
N        7.60062924      10.82451497      -0.14783296
O        7.61538866      11.95701194       1.82745132
O        7.58173211       9.72743003      -2.14301558
H        8.24977125       3.37918167       0.11217013
H        8.49910412       1.25920351       1.33582841
H        8.29891478       6.72228976       6.06497447
H        8.54771426       4.57215511       7.23549133
H        8.85481205       0.07447692       5.87865061
H        8.10520645       8.38728110       5.13202486
H        7.85588959      10.50748481       3.90835371
H        7.80604136       7.19421206      -1.99109429
H        8.05504571       5.04409362      -0.82042798
H        7.49938221      11.69213962      -0.63417619
