80
Dimer: struct; Energy: -4906.06228 eV
C       -1.29972200       1.48833600      -0.03228100
C       -0.45010500       2.63965400       0.01843500
C        0.99654200       2.45238200       0.05441800
C       -0.76903400       0.15867800      -0.04877100
C        0.67752200      -0.02870400      -0.01297900
C        1.52709100       1.12265000       0.03785500
C        2.93347700       0.94084900       0.07277000
C        3.48023700      -0.37253000       0.05696900
C        3.79427800       2.07240500       0.12351100
C        5.26507800       1.88272800       0.16006300
C        1.24802600      -1.29258500      -0.02698300
C        2.64560500      -1.46904700       0.00777700
C        1.86805800       3.52983300       0.10418700
C        3.26457400       3.34539700       0.13880400
C        4.95087500      -0.56291500       0.09346700
N        5.75909100       0.57580800       0.14293500
O        6.06925500       2.83065500       0.20492200
O        5.48910000      -1.68427500       0.08194900
C       -1.02041300       3.90352800       0.03216900
C       -2.41794600       4.08003500      -0.00262400
C       -2.70602800       1.67000700      -0.06716000
C       -3.25245200       2.98347100      -0.05156500
C       -3.56691500       0.53850500      -0.11766500
C       -3.03687800      -0.73433100      -0.13279200
C       -1.64041100      -0.91883000      -0.09829200
C       -4.72314700       3.17392200      -0.08803700
C       -5.03773600       0.72818300      -0.15412500
N       -5.53143900       2.03522700      -0.13722100
O       -5.26133100       4.29529300      -0.07673500
O       -5.84203300      -0.21964700      -0.19870900
H        0.62972700      -2.20233100      -0.06573200
H        3.07286500      -2.48716200      -0.00439800
H        1.49989900       4.56697900       0.11841200
H        3.93550500       4.22152900       0.17822500
H        6.75033500       0.44779700       0.16755800
H       -0.40199700       4.81321100       0.07071000
H       -2.84532000       5.09816700       0.00933800
H       -3.70773700      -1.61056600      -0.17200800
H       -1.27202900      -1.95588300      -0.11238600
H       -6.52266300       2.16338500      -0.16179200
C        5.38898766       6.43458568       6.26864818
C        5.96804256       5.54226971       7.22699151
C        6.81210589       4.44835513       6.75788481
C        5.61540098       6.28315593       4.86305289
C        6.45954905       5.18944912       4.39386552
C        7.03848491       4.29709034       5.35224785
C        7.85913162       3.23361357       4.89645362
C        8.09624633       3.06648101       3.50361340
C        8.44336350       2.33635958       5.83324622
C        9.30160508       1.22406829       5.35701569
C        6.71401186       4.99396421       3.04475453
C        7.52982446       3.93633653       2.59592535
C        7.39910804       3.55344322       7.63963246
C        8.21370664       2.49818070       7.18320937
C        8.95437103       1.95447694       3.02672387
N        9.50792451       1.09689862       3.98091894
O        9.84017799       0.40745678       6.12536681
O        9.19910607       1.75596818       1.82340924
C        5.71391140       5.73777286       8.57607016
C        4.89815674       6.79537750       9.02493598
C        4.56835083       7.49800291       6.72429765
C        4.33161126       7.66499024       8.11716508
C        3.98388550       8.39516693       5.78756346
C        4.21362969       8.23296000       4.43767974
C        5.02828471       7.17781880       3.98121020
C        3.47343674       8.77700971       8.59412918
C        3.12555890       9.50741725       6.26379467
N        2.91961607       9.63446553       7.63996279
O        3.22889732       8.97561856       9.79745693
O        2.58670469      10.32393280       5.49554887
H        6.28798321       5.65767325       2.27701576
H        7.71567362       3.80411823       1.51553842
H        7.24954094       3.63571376       8.72695783
H        8.66868000       1.79998717       7.90766416
H       10.08632916       0.34731082       3.65978973
H        6.14016980       5.07411445       9.34373428
H        4.71240620       6.92781144      10.10537218
H        3.75853093       8.93099073       3.71310008
H        5.17789376       7.09527975       2.89392583
H        2.34119530      10.38397892       7.96122954
