80
Dimer: struct; Energy: -4906.06228 eV
C       -1.29972200       1.48833600      -0.03228100
C       -0.45010500       2.63965400       0.01843500
C        0.99654200       2.45238200       0.05441800
C       -0.76903400       0.15867800      -0.04877100
C        0.67752200      -0.02870400      -0.01297900
C        1.52709100       1.12265000       0.03785500
C        2.93347700       0.94084900       0.07277000
C        3.48023700      -0.37253000       0.05696900
C        3.79427800       2.07240500       0.12351100
C        5.26507800       1.88272800       0.16006300
C        1.24802600      -1.29258500      -0.02698300
C        2.64560500      -1.46904700       0.00777700
C        1.86805800       3.52983300       0.10418700
C        3.26457400       3.34539700       0.13880400
C        4.95087500      -0.56291500       0.09346700
N        5.75909100       0.57580800       0.14293500
O        6.06925500       2.83065500       0.20492200
O        5.48910000      -1.68427500       0.08194900
C       -1.02041300       3.90352800       0.03216900
C       -2.41794600       4.08003500      -0.00262400
C       -2.70602800       1.67000700      -0.06716000
C       -3.25245200       2.98347100      -0.05156500
C       -3.56691500       0.53850500      -0.11766500
C       -3.03687800      -0.73433100      -0.13279200
C       -1.64041100      -0.91883000      -0.09829200
C       -4.72314700       3.17392200      -0.08803700
C       -5.03773600       0.72818300      -0.15412500
N       -5.53143900       2.03522700      -0.13722100
O       -5.26133100       4.29529300      -0.07673500
O       -5.84203300      -0.21964700      -0.19870900
H        0.62972700      -2.20233100      -0.06573200
H        3.07286500      -2.48716200      -0.00439800
H        1.49989900       4.56697900       0.11841200
H        3.93550500       4.22152900       0.17822500
H        6.75033500       0.44779700       0.16755800
H       -0.40199700       4.81321100       0.07071000
H       -2.84532000       5.09816700       0.00933800
H       -3.70773700      -1.61056600      -0.17200800
H       -1.27202900      -1.95588300      -0.11238600
H       -6.52266300       2.16338500      -0.16179200
C       10.60884153       5.09920227       8.14426900
C        9.90869309       3.86357008       7.96272134
C        8.89283575       3.77078961       6.91937155
C       10.33977330       6.24595558       7.33035794
C        9.32412336       6.15324447       6.28691308
C        8.62392107       4.91761967       6.10548613
C        7.63636653       4.82715895       5.09121540
C        7.35460678       5.95565032       4.27189909
C        6.92974117       3.60800767       4.89545337
C        5.89689897       3.51298912       3.83489950
C        9.02139397       7.23097521       5.46842822
C        8.03970388       7.13713791       4.46192273
C        8.18301501       2.60031806       6.69785722
C        7.20268430       2.51416505       5.68939241
C        6.32196178       5.86131587       3.21119177
N        5.65221382       4.64520746       3.05349505
O        5.24570702       2.47629375       3.61469433
O        6.03051159       6.81157863       2.46331174
C       10.21148105       2.78573474       8.78089477
C       11.19316003       2.87951177       9.78736186
C       11.59632328       5.18977991       9.15846471
C       11.87799265       4.06108757       9.97744338
C       12.30283521       6.40896100       9.35445533
C       12.02953199       7.50263741       8.56044224
C       11.04932336       7.41652145       7.55191594
C       12.91065416       4.15537786      11.03822853
C       13.33562582       6.50400766      10.41508305
N       13.58024898       5.37155173      11.19616914
O       13.20223035       3.20503812      11.78594530
O       13.98669708       7.54070947      10.63557947
H        9.53693114       8.19746904       5.57587136
H        7.81886598       8.01129080       3.82447089
H        8.36019405       1.69737625       7.30177683
H        6.65239422       1.56939072       5.53482200
H        4.95615065       4.58133498       2.33867049
H        9.69601632       1.81922120       8.67321649
H       11.41422878       2.00530696      10.42476202
H       12.57963167       8.44755067       8.71506027
H       10.87188968       8.31936816       6.94795569
H       14.27625136       5.43529589      11.91106116
