80
Dimer: struct; Energy: -4906.06228 eV
C       -1.29972200       1.48833600      -0.03228100
C       -0.45010500       2.63965400       0.01843500
C        0.99654200       2.45238200       0.05441800
C       -0.76903400       0.15867800      -0.04877100
C        0.67752200      -0.02870400      -0.01297900
C        1.52709100       1.12265000       0.03785500
C        2.93347700       0.94084900       0.07277000
C        3.48023700      -0.37253000       0.05696900
C        3.79427800       2.07240500       0.12351100
C        5.26507800       1.88272800       0.16006300
C        1.24802600      -1.29258500      -0.02698300
C        2.64560500      -1.46904700       0.00777700
C        1.86805800       3.52983300       0.10418700
C        3.26457400       3.34539700       0.13880400
C        4.95087500      -0.56291500       0.09346700
N        5.75909100       0.57580800       0.14293500
O        6.06925500       2.83065500       0.20492200
O        5.48910000      -1.68427500       0.08194900
C       -1.02041300       3.90352800       0.03216900
C       -2.41794600       4.08003500      -0.00262400
C       -2.70602800       1.67000700      -0.06716000
C       -3.25245200       2.98347100      -0.05156500
C       -3.56691500       0.53850500      -0.11766500
C       -3.03687800      -0.73433100      -0.13279200
C       -1.64041100      -0.91883000      -0.09829200
C       -4.72314700       3.17392200      -0.08803700
C       -5.03773600       0.72818300      -0.15412500
N       -5.53143900       2.03522700      -0.13722100
O       -5.26133100       4.29529300      -0.07673500
O       -5.84203300      -0.21964700      -0.19870900
H        0.62972700      -2.20233100      -0.06573200
H        3.07286500      -2.48716200      -0.00439800
H        1.49989900       4.56697900       0.11841200
H        3.93550500       4.22152900       0.17822500
H        6.75033500       0.44779700       0.16755800
H       -0.40199700       4.81321100       0.07071000
H       -2.84532000       5.09816700       0.00933800
H       -3.70773700      -1.61056600      -0.17200800
H       -1.27202900      -1.95588300      -0.11238600
H       -6.52266300       2.16338500      -0.16179200
C        8.73589695       4.63975696       2.81224335
C        8.46981973       6.03830914       2.65989838
C        8.54516122       6.90613262       3.83052180
C        9.07388784       4.06948769       4.08127732
C        9.14943552       4.93719463       5.25187313
C        8.88323311       6.33572380       5.09949183
C        8.95648478       7.17958720       6.23734990
C        9.29093324       6.63191600       7.50713770
C        8.69532426       8.57191928       6.10628298
C        8.77179349       9.45474664       7.29596124
C        9.47221199       4.44081945       6.50586401
C        9.54400543       5.28236317       7.63379310
C        8.29753121       8.26774082       3.74322787
C        8.37119328       9.10292091       4.87571188
C        9.36760539       7.51413667       8.69716406
N        9.10359190       8.87517386       8.52331094
O        8.55466158      10.67853538       7.24622762
O        9.65462065       7.09588621       9.83292630
C        8.14731699       6.53485021       1.40600194
C        8.07554782       5.69337452       0.27806948
C        8.66264304       3.79585250       1.67453662
C        8.32839210       4.34384373       0.40489416
C        8.92355765       2.40346858       1.80555014
C        9.24750798       1.87278738       3.03628698
C        9.32129570       2.70790386       4.16875599
C        8.25167720       3.46162683      -0.78521245
C        8.84699763       1.52061552       0.61587349
N        8.51540433       2.10052019      -0.61137908
O        7.96487173       3.87994130      -1.92099337
O        9.06383446       0.29677676       0.66550783
H        9.68368437       3.37239771       6.66456926
H        9.80335596       4.86018064       8.62058421
H        8.03473865       8.74418657       2.78648614
H        8.16906422      10.18402970       4.77744025
H        9.15517895       9.47002954       9.32521073
H        7.93606674       7.60333535       1.24738366
H        7.81639548       6.11551724      -0.70885502
H        9.44946385       0.79162938       3.13471800
H        9.58395053       2.23166203       5.12562015
H        8.46373478       1.50577577      -1.41335324
