80
Dimer: struct; Energy: -4906.06228 eV
C       -1.29972200       1.48833600      -0.03228100
C       -0.45010500       2.63965400       0.01843500
C        0.99654200       2.45238200       0.05441800
C       -0.76903400       0.15867800      -0.04877100
C        0.67752200      -0.02870400      -0.01297900
C        1.52709100       1.12265000       0.03785500
C        2.93347700       0.94084900       0.07277000
C        3.48023700      -0.37253000       0.05696900
C        3.79427800       2.07240500       0.12351100
C        5.26507800       1.88272800       0.16006300
C        1.24802600      -1.29258500      -0.02698300
C        2.64560500      -1.46904700       0.00777700
C        1.86805800       3.52983300       0.10418700
C        3.26457400       3.34539700       0.13880400
C        4.95087500      -0.56291500       0.09346700
N        5.75909100       0.57580800       0.14293500
O        6.06925500       2.83065500       0.20492200
O        5.48910000      -1.68427500       0.08194900
C       -1.02041300       3.90352800       0.03216900
C       -2.41794600       4.08003500      -0.00262400
C       -2.70602800       1.67000700      -0.06716000
C       -3.25245200       2.98347100      -0.05156500
C       -3.56691500       0.53850500      -0.11766500
C       -3.03687800      -0.73433100      -0.13279200
C       -1.64041100      -0.91883000      -0.09829200
C       -4.72314700       3.17392200      -0.08803700
C       -5.03773600       0.72818300      -0.15412500
N       -5.53143900       2.03522700      -0.13722100
O       -5.26133100       4.29529300      -0.07673500
O       -5.84203300      -0.21964700      -0.19870900
H        0.62972700      -2.20233100      -0.06573200
H        3.07286500      -2.48716200      -0.00439800
H        1.49989900       4.56697900       0.11841200
H        3.93550500       4.22152900       0.17822500
H        6.75033500       0.44779700       0.16755800
H       -0.40199700       4.81321100       0.07071000
H       -2.84532000       5.09816700       0.00933800
H       -3.70773700      -1.61056600      -0.17200800
H       -1.27202900      -1.95588300      -0.11238600
H       -6.52266300       2.16338500      -0.16179200
C        1.65834058       9.20119451       2.23461905
C        1.39626529      10.46884944       1.62280059
C        2.46529186      11.45993261       1.55885163
C        2.94020803       8.87931336       2.78516463
C        4.00930643       9.87019347       2.72111336
C        3.74714077      11.13787921       2.10938659
C        4.78625369      12.10149169       2.04703616
C        6.06708464      11.80054410       2.58838927
C        4.54531422      13.36692455       1.44321511
C        5.63169385      14.37492744       1.37782752
C        5.27059896       9.61407774       3.23745820
C        6.30025107      10.57392519       3.17355540
C        2.26946629      12.70405015       0.97855719
C        3.30403496      13.65878976       0.91845866
C        7.15386828      12.80802659       2.52331213
N        6.87380875      14.03764017       1.92167490
O        5.48364120      15.49777258       0.86345628
O        8.29368719      12.60501162       2.97813609
C        0.13518337      10.72499905       1.10619911
C       -0.89446059       9.76519665       1.17004592
C        0.61936067       8.23758656       2.29705246
C       -0.66125049       8.53874703       1.75543681
C        0.86013852       6.97221317       2.90106417
C        2.10147960       6.68074567       3.42584845
C        3.13609364       7.63536826       3.36568431
C       -1.74812506       7.53126780       1.82051245
C       -0.22628188       5.96423207       2.96653403
N       -1.46821614       6.30172648       2.42239321
O       -2.88786301       7.73423256       1.36549003
O       -0.07845435       4.84145968       3.48111376
H        5.51208599       8.65241929       3.71529705
H        7.29535534      10.34320819       3.59283412
H        1.29922351      12.98974134       0.54447801
H        3.12035303      14.64193473       0.45048791
H        7.60610095      14.71688281       1.87768214
H       -0.10612345      11.68662753       0.62819429
H       -1.88959057       9.99575248       0.75058827
H        2.28522209       5.69768147       3.89403744
H        4.10638016       7.34994524       3.79980484
H       -2.20061283       5.62259810       2.46635875
