80
Dimer: struct; Energy: -4906.06228 eV
C       -1.29972200       1.48833600      -0.03228100
C       -0.45010500       2.63965400       0.01843500
C        0.99654200       2.45238200       0.05441800
C       -0.76903400       0.15867800      -0.04877100
C        0.67752200      -0.02870400      -0.01297900
C        1.52709100       1.12265000       0.03785500
C        2.93347700       0.94084900       0.07277000
C        3.48023700      -0.37253000       0.05696900
C        3.79427800       2.07240500       0.12351100
C        5.26507800       1.88272800       0.16006300
C        1.24802600      -1.29258500      -0.02698300
C        2.64560500      -1.46904700       0.00777700
C        1.86805800       3.52983300       0.10418700
C        3.26457400       3.34539700       0.13880400
C        4.95087500      -0.56291500       0.09346700
N        5.75909100       0.57580800       0.14293500
O        6.06925500       2.83065500       0.20492200
O        5.48910000      -1.68427500       0.08194900
C       -1.02041300       3.90352800       0.03216900
C       -2.41794600       4.08003500      -0.00262400
C       -2.70602800       1.67000700      -0.06716000
C       -3.25245200       2.98347100      -0.05156500
C       -3.56691500       0.53850500      -0.11766500
C       -3.03687800      -0.73433100      -0.13279200
C       -1.64041100      -0.91883000      -0.09829200
C       -4.72314700       3.17392200      -0.08803700
C       -5.03773600       0.72818300      -0.15412500
N       -5.53143900       2.03522700      -0.13722100
O       -5.26133100       4.29529300      -0.07673500
O       -5.84203300      -0.21964700      -0.19870900
H        0.62972700      -2.20233100      -0.06573200
H        3.07286500      -2.48716200      -0.00439800
H        1.49989900       4.56697900       0.11841200
H        3.93550500       4.22152900       0.17822500
H        6.75033500       0.44779700       0.16755800
H       -0.40199700       4.81321100       0.07071000
H       -2.84532000       5.09816700       0.00933800
H       -3.70773700      -1.61056600      -0.17200800
H       -1.27202900      -1.95588300      -0.11238600
H       -6.52266300       2.16338500      -0.16179200
C        7.43599271       1.96254970       4.99942308
C        8.01477948       2.99283325       4.19104447
C        8.15920130       4.33390315       4.74766551
C        6.99524209       2.21187070       6.33862807
C        7.13977329       3.55278239       6.89539006
C        7.71846101       4.58305933       6.08692387
C        7.85902991       5.88683664       6.62784654
C        7.42720038       6.15455070       7.95676076
C        8.43160311       6.92401221       5.84019258
C        8.57876234       8.28759805       6.40547469
C        6.73092678       3.85261506       8.18613055
C        6.87229167       5.14902664       8.71989748
C        8.71219997       5.37086836       4.01158577
C        8.85021608       6.66475386       4.55221854
C        7.57408732       7.51783719       8.52264841
N        8.14152802       8.50634185       7.71442825
O        9.07089207       9.23554337       5.76791169
O        7.21615831       7.81437537       9.67643306
C        8.42389883       2.69311113       2.90046114
C        8.28259008       1.39674241       2.36667866
C        7.29535203       0.65883351       4.45862574
C        7.72745973       0.39139669       3.12980274
C        6.72257507      -0.37834921       5.24612337
C        6.30393652      -0.11870233       6.53399168
C        6.44202262       1.17509343       7.07470877
C        7.58056678      -0.97192430       2.56383109
C        6.57533034      -1.74192974       4.68080168
N        7.01287044      -1.96041849       3.37190376
O        7.93870059      -1.26848031       1.41012516
O        6.08297376      -2.68989573       5.31814663
H        6.28170632       3.08896501       8.83917916
H        6.53807675       5.35980349       9.75097992
H        9.06280549       5.22000037       2.97924385
H        9.29420252       7.47203609       3.94354692
H        8.24064220       9.42529277       8.09556256
H        8.87329974       3.45680353       2.24757551
H        8.61698239       1.18580329       1.33562538
H        5.85973698      -0.92588012       7.14270200
H        6.09137751       1.32622485       8.10698303
H        6.91377394      -2.87930906       2.99062536
