80
Dimer: struct; Energy: -4906.06228 eV
C       -1.29972200       1.48833600      -0.03228100
C       -0.45010500       2.63965400       0.01843500
C        0.99654200       2.45238200       0.05441800
C       -0.76903400       0.15867800      -0.04877100
C        0.67752200      -0.02870400      -0.01297900
C        1.52709100       1.12265000       0.03785500
C        2.93347700       0.94084900       0.07277000
C        3.48023700      -0.37253000       0.05696900
C        3.79427800       2.07240500       0.12351100
C        5.26507800       1.88272800       0.16006300
C        1.24802600      -1.29258500      -0.02698300
C        2.64560500      -1.46904700       0.00777700
C        1.86805800       3.52983300       0.10418700
C        3.26457400       3.34539700       0.13880400
C        4.95087500      -0.56291500       0.09346700
N        5.75909100       0.57580800       0.14293500
O        6.06925500       2.83065500       0.20492200
O        5.48910000      -1.68427500       0.08194900
C       -1.02041300       3.90352800       0.03216900
C       -2.41794600       4.08003500      -0.00262400
C       -2.70602800       1.67000700      -0.06716000
C       -3.25245200       2.98347100      -0.05156500
C       -3.56691500       0.53850500      -0.11766500
C       -3.03687800      -0.73433100      -0.13279200
C       -1.64041100      -0.91883000      -0.09829200
C       -4.72314700       3.17392200      -0.08803700
C       -5.03773600       0.72818300      -0.15412500
N       -5.53143900       2.03522700      -0.13722100
O       -5.26133100       4.29529300      -0.07673500
O       -5.84203300      -0.21964700      -0.19870900
H        0.62972700      -2.20233100      -0.06573200
H        3.07286500      -2.48716200      -0.00439800
H        1.49989900       4.56697900       0.11841200
H        3.93550500       4.22152900       0.17822500
H        6.75033500       0.44779700       0.16755800
H       -0.40199700       4.81321100       0.07071000
H       -2.84532000       5.09816700       0.00933800
H       -3.70773700      -1.61056600      -0.17200800
H       -1.27202900      -1.95588300      -0.11238600
H       -6.52266300       2.16338500      -0.16179200
C        7.97513292       6.93417205       4.43878228
C        7.79322076       7.38919328       3.09348754
C        7.96121307       6.44253384       1.99586847
C        8.31714573       5.57615284       4.73661299
C        8.48497471       4.62941139       3.63914709
C        8.30316500       5.08451592       2.29386172
C        8.46635406       4.16439307       1.22665251
C        8.80601238       2.81053928       1.50210252
C        8.28998525       4.59745767      -0.11696987
C        8.46057469       3.63555989      -1.23331119
C        8.81567007       3.30215244       3.86738017
C        8.97686906       2.39115022       2.80452364
C        7.79781356       6.82633031       0.67340161
C        7.96076482       5.90953927      -0.38414886
C        8.97671336       1.84815543       0.38629197
N        8.79418375       2.31592533      -0.91763461
O        8.32011395       3.95261652      -2.42789248
O        9.27292906       0.65291780       0.56216217
C        7.46227768       8.71627362       2.86511993
C        7.30103850       9.62727823       3.92791638
C        7.81201540       7.85415535       5.50599400
C        7.47215717       9.20784088       5.23023692
C        7.98859414       7.42123745       6.84963681
C        8.31795703       6.10913371       7.11643898
C        8.48080757       5.19229217       6.05897432
C        7.30146174      10.17031517       6.34605585
C        7.81809221       8.38316948       7.96598682
N        7.48425470       9.70267705       7.65000472
O        7.00503681      11.36548765       6.17016474
O        7.95878802       8.06632194       9.16058945
H        8.96389588       2.91335799       4.88635068
H        9.24044552       1.33977226       3.01521143
H        7.53512055       7.86040953       0.40305409
H        7.82460441       6.24240826      -1.42816433
H        8.90918522       1.66751075      -1.66989186
H        7.31387311       9.10490355       1.84610581
H        7.03724490      10.67868288       3.71733246
H        8.45434540       5.77619109       8.16043366
H        8.74361799       4.15819369       6.32907409
H        7.36926871      10.35120979       8.40215945
