80
Dimer: struct; Energy: -4906.06228 eV
C       -1.29972200       1.48833600      -0.03228100
C       -0.45010500       2.63965400       0.01843500
C        0.99654200       2.45238200       0.05441800
C       -0.76903400       0.15867800      -0.04877100
C        0.67752200      -0.02870400      -0.01297900
C        1.52709100       1.12265000       0.03785500
C        2.93347700       0.94084900       0.07277000
C        3.48023700      -0.37253000       0.05696900
C        3.79427800       2.07240500       0.12351100
C        5.26507800       1.88272800       0.16006300
C        1.24802600      -1.29258500      -0.02698300
C        2.64560500      -1.46904700       0.00777700
C        1.86805800       3.52983300       0.10418700
C        3.26457400       3.34539700       0.13880400
C        4.95087500      -0.56291500       0.09346700
N        5.75909100       0.57580800       0.14293500
O        6.06925500       2.83065500       0.20492200
O        5.48910000      -1.68427500       0.08194900
C       -1.02041300       3.90352800       0.03216900
C       -2.41794600       4.08003500      -0.00262400
C       -2.70602800       1.67000700      -0.06716000
C       -3.25245200       2.98347100      -0.05156500
C       -3.56691500       0.53850500      -0.11766500
C       -3.03687800      -0.73433100      -0.13279200
C       -1.64041100      -0.91883000      -0.09829200
C       -4.72314700       3.17392200      -0.08803700
C       -5.03773600       0.72818300      -0.15412500
N       -5.53143900       2.03522700      -0.13722100
O       -5.26133100       4.29529300      -0.07673500
O       -5.84203300      -0.21964700      -0.19870900
H        0.62972700      -2.20233100      -0.06573200
H        3.07286500      -2.48716200      -0.00439800
H        1.49989900       4.56697900       0.11841200
H        3.93550500       4.22152900       0.17822500
H        6.75033500       0.44779700       0.16755800
H       -0.40199700       4.81321100       0.07071000
H       -2.84532000       5.09816700       0.00933800
H       -3.70773700      -1.61056600      -0.17200800
H       -1.27202900      -1.95588300      -0.11238600
H       -6.52266300       2.16338500      -0.16179200
C        7.32413124       4.24441848       1.94856658
C        7.57241942       2.94288131       2.49106842
C        8.92549555       2.39917415       2.43890876
C        8.36674049       5.02696528       1.35655429
C        9.71981850       4.48346901       1.30450590
C        9.96802706       3.18187450       1.84691889
C       11.28334746       2.65312923       1.79639244
C       12.33306215       3.41540061       1.21226747
C       11.54999715       1.36157286       2.33001410
C       12.92536039       0.80824752       2.27735430
C       10.76897316       5.19588889       0.74343679
C       12.07424365       4.66719897       0.69516611
C        9.22500405       1.14464471       2.94819090
C       10.53278053       0.62263863       2.89620788
C       13.70859571       2.86271830       1.15931115
N       13.92590094       1.59063362       1.69496895
O       13.22176780      -0.31332359       2.72624124
O       14.66762355       3.47951874       0.66222978
C        6.52349085       2.23049470       3.05238073
C        5.21824782       2.75914321       3.10070396
C        6.00893071       4.77321064       1.99900343
C        4.95951467       4.01080864       2.58336568
C        5.74213832       6.06466152       1.46519597
C        6.75955195       6.80324815       0.89894618
C        8.06733368       6.28136476       0.84703373
C        3.58389761       4.56345526       2.63632781
C        4.36673913       6.61795534       1.51777442
N        3.36646083       5.83542864       2.10043016
O        2.62494111       3.94672245       3.13360614
O        4.07013334       7.73938653       1.06868623
H       10.61945328       6.19911700       0.31610779
H       12.89097903       5.25648235       0.24245660
H        8.45199731       0.51239107       3.41093395
H       10.74313926      -0.37949637       3.30946851
H       14.85290401       1.21786264       1.65940401
H        6.67317954       1.22735226       3.47986811
H        4.40144357       2.16999350       3.55360332
H        6.54926330       7.80533859       0.48545990
H        8.84047361       6.91338570       0.38423028
H        2.43940282       6.20805449       2.13602018
