80
Dimer: struct; Energy: -4906.06228 eV
C       -1.29972200       1.48833600      -0.03228100
C       -0.45010500       2.63965400       0.01843500
C        0.99654200       2.45238200       0.05441800
C       -0.76903400       0.15867800      -0.04877100
C        0.67752200      -0.02870400      -0.01297900
C        1.52709100       1.12265000       0.03785500
C        2.93347700       0.94084900       0.07277000
C        3.48023700      -0.37253000       0.05696900
C        3.79427800       2.07240500       0.12351100
C        5.26507800       1.88272800       0.16006300
C        1.24802600      -1.29258500      -0.02698300
C        2.64560500      -1.46904700       0.00777700
C        1.86805800       3.52983300       0.10418700
C        3.26457400       3.34539700       0.13880400
C        4.95087500      -0.56291500       0.09346700
N        5.75909100       0.57580800       0.14293500
O        6.06925500       2.83065500       0.20492200
O        5.48910000      -1.68427500       0.08194900
C       -1.02041300       3.90352800       0.03216900
C       -2.41794600       4.08003500      -0.00262400
C       -2.70602800       1.67000700      -0.06716000
C       -3.25245200       2.98347100      -0.05156500
C       -3.56691500       0.53850500      -0.11766500
C       -3.03687800      -0.73433100      -0.13279200
C       -1.64041100      -0.91883000      -0.09829200
C       -4.72314700       3.17392200      -0.08803700
C       -5.03773600       0.72818300      -0.15412500
N       -5.53143900       2.03522700      -0.13722100
O       -5.26133100       4.29529300      -0.07673500
O       -5.84203300      -0.21964700      -0.19870900
H        0.62972700      -2.20233100      -0.06573200
H        3.07286500      -2.48716200      -0.00439800
H        1.49989900       4.56697900       0.11841200
H        3.93550500       4.22152900       0.17822500
H        6.75033500       0.44779700       0.16755800
H       -0.40199700       4.81321100       0.07071000
H       -2.84532000       5.09816700       0.00933800
H       -3.70773700      -1.61056600      -0.17200800
H       -1.27202900      -1.95588300      -0.11238600
H       -6.52266300       2.16338500      -0.16179200
C        5.05199579       1.41432433      10.55052310
C        4.70595087       0.36362019       9.64155224
C        4.66573018       0.64815968       8.21096751
C        5.35968829       2.73616075      10.09449035
C        5.31968193       3.02075711       8.66399332
C        4.97351556       1.97004206       7.75507400
C        4.93441862       2.24639575       6.36428562
C        5.23710849       3.55363425       5.89135126
C        4.59257295       1.21561474       5.44526220
C        4.55154359       1.50419687       3.99075094
C        5.60829878       4.28190057       8.16471024
C        5.56840679       4.55245995       6.78240043
C        4.33706473      -0.32961402       7.28422301
C        4.29920422      -0.05141482       5.90341032
C        5.19630193       3.84288078       4.43703838
N        4.85580052       2.80141566       3.56999776
O        4.26008143       0.64665478       3.13813734
O        5.45040924       4.96411300       3.96213329
C        4.41759145      -0.89756587      10.14062730
C        4.45750349      -1.16817354      11.52288714
C        5.09108531       1.13811038      11.94124066
C        4.78856453      -0.16923617      12.41382531
C        5.43269194       2.16888769      12.86035816
C        5.72585176       3.43582577      12.40187722
C        5.68812129       3.71405599      11.02111129
C        4.82933237      -0.45854451      13.86819260
C        5.47363235       1.88032442      14.31489473
N        5.16955380       0.58295388      14.73532109
O        4.57543105      -1.57983448      14.34304583
O        5.76480870       2.73782783      15.16763580
H        5.87865599       5.11591169       8.83011640
H        5.80286110       5.56605503       6.41238193
H        4.09419124      -1.35735695       7.59433939
H        4.03424298      -0.84919918       5.18741775
H        4.82820123       2.99607589       2.58974093
H        4.14744713      -1.73155609       9.47509798
H        4.22325609      -2.18184162      11.89300817
H        5.99063530       4.23376204      13.11781356
H        5.93083828       4.74175335      10.71077363
H        5.19706764       0.38816420      15.71555229
