80
Dimer: struct; Energy: -4906.06228 eV
C       -1.29972200       1.48833600      -0.03228100
C       -0.45010500       2.63965400       0.01843500
C        0.99654200       2.45238200       0.05441800
C       -0.76903400       0.15867800      -0.04877100
C        0.67752200      -0.02870400      -0.01297900
C        1.52709100       1.12265000       0.03785500
C        2.93347700       0.94084900       0.07277000
C        3.48023700      -0.37253000       0.05696900
C        3.79427800       2.07240500       0.12351100
C        5.26507800       1.88272800       0.16006300
C        1.24802600      -1.29258500      -0.02698300
C        2.64560500      -1.46904700       0.00777700
C        1.86805800       3.52983300       0.10418700
C        3.26457400       3.34539700       0.13880400
C        4.95087500      -0.56291500       0.09346700
N        5.75909100       0.57580800       0.14293500
O        6.06925500       2.83065500       0.20492200
O        5.48910000      -1.68427500       0.08194900
C       -1.02041300       3.90352800       0.03216900
C       -2.41794600       4.08003500      -0.00262400
C       -2.70602800       1.67000700      -0.06716000
C       -3.25245200       2.98347100      -0.05156500
C       -3.56691500       0.53850500      -0.11766500
C       -3.03687800      -0.73433100      -0.13279200
C       -1.64041100      -0.91883000      -0.09829200
C       -4.72314700       3.17392200      -0.08803700
C       -5.03773600       0.72818300      -0.15412500
N       -5.53143900       2.03522700      -0.13722100
O       -5.26133100       4.29529300      -0.07673500
O       -5.84203300      -0.21964700      -0.19870900
H        0.62972700      -2.20233100      -0.06573200
H        3.07286500      -2.48716200      -0.00439800
H        1.49989900       4.56697900       0.11841200
H        3.93550500       4.22152900       0.17822500
H        6.75033500       0.44779700       0.16755800
H       -0.40199700       4.81321100       0.07071000
H       -2.84532000       5.09816700       0.00933800
H       -3.70773700      -1.61056600      -0.17200800
H       -1.27202900      -1.95588300      -0.11238600
H       -6.52266300       2.16338500      -0.16179200
C       11.35647582       5.08406181       5.17305357
C       10.07608269       5.51935864       4.70287871
C        9.64559659       5.13729460       3.36203498
C       12.22579992       4.28430589       4.36400589
C       11.79536809       3.90204685       3.02328824
C       10.51501089       4.33747096       2.55311923
C       10.09626622       3.96611478       1.24968541
C       10.94579560       3.17159842       0.43041491
C        8.82753370       4.38902661       0.76446858
C        8.38925348       4.00092044      -0.59856117
C       12.59499199       3.12873329       2.19524605
C       12.17543392       2.76187041       0.90104482
C        8.41662341       5.52980247       2.85362546
C        8.00401865       5.15903940       1.55834018
C       10.50814473       2.78312629      -0.93263527
N        9.25477740       3.22013631      -1.36903283
O        7.29294497       4.33891632      -1.07933660
O       11.20468527       2.09073008      -1.69597387
C        9.27627883       6.29240000       5.53085105
C        9.69576801       6.65924785       6.82503621
C       11.77530842       5.45536505       6.47636881
C       10.92549015       6.24967824       7.29544483
C       13.04412349       5.03269651       6.96158380
C       13.86743654       4.26282781       6.16739406
C       13.45485862       3.89194602       4.87218120
C       11.36312032       6.63821784       8.65855246
C       13.48244723       5.42088468       8.32459655
N       12.61660607       6.20147594       9.09491388
O       10.66647005       7.33043008       9.42194181
O       14.57883204       5.08319380       8.80539621
H       13.58528927       2.77422311       2.51938608
H       12.83259232       2.14528175       0.26290787
H        7.72012296       6.14469907       3.44371402
H        7.01989026       5.48562494       1.17867862
H        8.95954156       2.95847344      -2.28768735
H        8.28590444       6.64667893       5.20667221
H        9.03856026       7.27569212       7.46336124
H       14.85169940       3.93634590       6.54688535
H       14.15124093       3.27715670       4.28186888
H       12.91173268       6.46325187      10.01356881
