80
Dimer: struct; Energy: -4906.06228 eV
C       -1.29972200       1.48833600      -0.03228100
C       -0.45010500       2.63965400       0.01843500
C        0.99654200       2.45238200       0.05441800
C       -0.76903400       0.15867800      -0.04877100
C        0.67752200      -0.02870400      -0.01297900
C        1.52709100       1.12265000       0.03785500
C        2.93347700       0.94084900       0.07277000
C        3.48023700      -0.37253000       0.05696900
C        3.79427800       2.07240500       0.12351100
C        5.26507800       1.88272800       0.16006300
C        1.24802600      -1.29258500      -0.02698300
C        2.64560500      -1.46904700       0.00777700
C        1.86805800       3.52983300       0.10418700
C        3.26457400       3.34539700       0.13880400
C        4.95087500      -0.56291500       0.09346700
N        5.75909100       0.57580800       0.14293500
O        6.06925500       2.83065500       0.20492200
O        5.48910000      -1.68427500       0.08194900
C       -1.02041300       3.90352800       0.03216900
C       -2.41794600       4.08003500      -0.00262400
C       -2.70602800       1.67000700      -0.06716000
C       -3.25245200       2.98347100      -0.05156500
C       -3.56691500       0.53850500      -0.11766500
C       -3.03687800      -0.73433100      -0.13279200
C       -1.64041100      -0.91883000      -0.09829200
C       -4.72314700       3.17392200      -0.08803700
C       -5.03773600       0.72818300      -0.15412500
N       -5.53143900       2.03522700      -0.13722100
O       -5.26133100       4.29529300      -0.07673500
O       -5.84203300      -0.21964700      -0.19870900
H        0.62972700      -2.20233100      -0.06573200
H        3.07286500      -2.48716200      -0.00439800
H        1.49989900       4.56697900       0.11841200
H        3.93550500       4.22152900       0.17822500
H        6.75033500       0.44779700       0.16755800
H       -0.40199700       4.81321100       0.07071000
H       -2.84532000       5.09816700       0.00933800
H       -3.70773700      -1.61056600      -0.17200800
H       -1.27202900      -1.95588300      -0.11238600
H       -6.52266300       2.16338500      -0.16179200
C        9.73682155       1.88613804       5.74533767
C        9.56456362       0.47335487       5.58937222
C       10.49813077      -0.43216509       6.25091517
C       10.79956964       2.43468962       6.53245248
C       11.73303771       1.52931521       7.19415625
C       11.56080186       0.11653903       7.03806046
C       12.46819633      -0.76395941       7.68113901
C       13.53074435      -0.23828874       8.46779181
C       12.31372242      -2.17095473       7.53805178
C       13.26243521      -3.09209625       8.21036748
C       12.78086017       2.00340469       7.96899389
C       13.68015213       1.12548682       8.60626018
C       10.38068646      -1.80904598       6.13548723
C       11.28396993      -2.68063423       6.77570970
C       14.47974959      -1.15881907       9.14037461
N       14.29115109      -2.53315091       8.97306390
O       13.18051208      -4.33027080       8.12381707
O       15.42773683      -0.76115231       9.84069483
C        8.51669434      -0.00086490       4.81483822
C        7.61738205       0.87698926       4.17759945
C        8.82956883       2.76666927       5.10231767
C        7.76703569       2.24070267       4.31593829
C        8.98410299       4.17368398       5.24515590
C       10.01404714       4.68301306       6.00744092
C       10.91727109       3.81150608       6.64776295
C        6.81797557       3.16122724       3.64328312
C        8.03543237       5.09483809       4.57275672
N        7.00668347       4.53558853       3.81032111
O        5.86987691       2.76352756       2.94314988
O        8.11739478       6.33302560       4.65899452
H       12.94719437       3.08175498       8.11365391
H       14.50576652       1.53053171       9.21745330
H        9.57794225      -2.26972007       5.53983940
H       11.16690614      -3.77320983       6.66669441
H       14.93063278      -3.15382846       9.42625296
H        8.35033891      -1.07925100       4.67042149
H        6.79156850       0.47201816       3.56652271
H       10.13133238       5.77560512       6.11636399
H       11.72016209       4.27195314       7.24336132
H        6.36715761       5.15614817       3.35703793
