80
Dimer: struct; Energy: -4906.06228 eV
C       -1.29972200       1.48833600      -0.03228100
C       -0.45010500       2.63965400       0.01843500
C        0.99654200       2.45238200       0.05441800
C       -0.76903400       0.15867800      -0.04877100
C        0.67752200      -0.02870400      -0.01297900
C        1.52709100       1.12265000       0.03785500
C        2.93347700       0.94084900       0.07277000
C        3.48023700      -0.37253000       0.05696900
C        3.79427800       2.07240500       0.12351100
C        5.26507800       1.88272800       0.16006300
C        1.24802600      -1.29258500      -0.02698300
C        2.64560500      -1.46904700       0.00777700
C        1.86805800       3.52983300       0.10418700
C        3.26457400       3.34539700       0.13880400
C        4.95087500      -0.56291500       0.09346700
N        5.75909100       0.57580800       0.14293500
O        6.06925500       2.83065500       0.20492200
O        5.48910000      -1.68427500       0.08194900
C       -1.02041300       3.90352800       0.03216900
C       -2.41794600       4.08003500      -0.00262400
C       -2.70602800       1.67000700      -0.06716000
C       -3.25245200       2.98347100      -0.05156500
C       -3.56691500       0.53850500      -0.11766500
C       -3.03687800      -0.73433100      -0.13279200
C       -1.64041100      -0.91883000      -0.09829200
C       -4.72314700       3.17392200      -0.08803700
C       -5.03773600       0.72818300      -0.15412500
N       -5.53143900       2.03522700      -0.13722100
O       -5.26133100       4.29529300      -0.07673500
O       -5.84203300      -0.21964700      -0.19870900
H        0.62972700      -2.20233100      -0.06573200
H        3.07286500      -2.48716200      -0.00439800
H        1.49989900       4.56697900       0.11841200
H        3.93550500       4.22152900       0.17822500
H        6.75033500       0.44779700       0.16755800
H       -0.40199700       4.81321100       0.07071000
H       -2.84532000       5.09816700       0.00933800
H       -3.70773700      -1.61056600      -0.17200800
H       -1.27202900      -1.95588300      -0.11238600
H       -6.52266300       2.16338500      -0.16179200
C       10.60842981       7.56474744       3.31378420
C       10.91649019       6.57212330       4.29854327
C        9.98768757       5.46584575       4.50501068
C        9.41444920       7.50167525       2.52617754
C        8.48571250       6.39540620       2.73241595
C        8.79376654       5.40287072       3.71727312
C        7.89102351       4.32727423       3.91811998
C        6.69921669       4.24684849       3.14527538
C        8.17942447       3.33116589       4.89206301
C        7.23562662       2.20619722       5.10243689
C        7.31425026       6.28251698       1.99893224
C        6.42001979       5.21249638       2.20137221
C       10.23353490       4.47587466       5.44439031
C        9.33446200       3.40890957       5.64117786
C        5.75504544       3.12218523       3.35510362
N        6.07743859       2.16620524       4.32180686
O        7.43115426       1.30530839       5.93756972
O        4.69790505       2.99639203       2.71175509
C       12.08797219       6.68471813       5.03187106
C       12.98222470       7.75467179       4.82944733
C       11.51102271       8.64033393       3.11289312
C       12.70280590       8.72035764       3.88571852
C       11.22259127       9.63661656       2.13913638
C       10.06740066       9.55864165       1.39031458
C        9.16836750       8.49167504       1.58696621
C       13.64704082       9.84506175       3.67594087
C       12.16635667      10.76164866       1.92882438
N       13.32457067      10.80123958       2.70944292
O       14.70427108       9.97070900       4.31915126
O       11.97082767      11.66274700       1.09392721
H        7.04149016       7.02435311       1.23295965
H        5.49426119       5.14740589       1.60304811
H       11.13942663       4.48849241       6.06938326
H        9.55529798       2.63410667       6.39630807
H        5.44124976       1.40807884       4.46346097
H       12.36072626       5.94269923       5.79767788
H       13.90815970       7.81974232       5.42760668
H        9.84635570      10.33351905       0.63527710
H        8.26235577       8.47891575       0.96217600
H       13.96082469      11.55933435       2.56792832
