80
Dimer: struct; Energy: -4906.06228 eV
C       -1.29972200       1.48833600      -0.03228100
C       -0.45010500       2.63965400       0.01843500
C        0.99654200       2.45238200       0.05441800
C       -0.76903400       0.15867800      -0.04877100
C        0.67752200      -0.02870400      -0.01297900
C        1.52709100       1.12265000       0.03785500
C        2.93347700       0.94084900       0.07277000
C        3.48023700      -0.37253000       0.05696900
C        3.79427800       2.07240500       0.12351100
C        5.26507800       1.88272800       0.16006300
C        1.24802600      -1.29258500      -0.02698300
C        2.64560500      -1.46904700       0.00777700
C        1.86805800       3.52983300       0.10418700
C        3.26457400       3.34539700       0.13880400
C        4.95087500      -0.56291500       0.09346700
N        5.75909100       0.57580800       0.14293500
O        6.06925500       2.83065500       0.20492200
O        5.48910000      -1.68427500       0.08194900
C       -1.02041300       3.90352800       0.03216900
C       -2.41794600       4.08003500      -0.00262400
C       -2.70602800       1.67000700      -0.06716000
C       -3.25245200       2.98347100      -0.05156500
C       -3.56691500       0.53850500      -0.11766500
C       -3.03687800      -0.73433100      -0.13279200
C       -1.64041100      -0.91883000      -0.09829200
C       -4.72314700       3.17392200      -0.08803700
C       -5.03773600       0.72818300      -0.15412500
N       -5.53143900       2.03522700      -0.13722100
O       -5.26133100       4.29529300      -0.07673500
O       -5.84203300      -0.21964700      -0.19870900
H        0.62972700      -2.20233100      -0.06573200
H        3.07286500      -2.48716200      -0.00439800
H        1.49989900       4.56697900       0.11841200
H        3.93550500       4.22152900       0.17822500
H        6.75033500       0.44779700       0.16755800
H       -0.40199700       4.81321100       0.07071000
H       -2.84532000       5.09816700       0.00933800
H       -3.70773700      -1.61056600      -0.17200800
H       -1.27202900      -1.95588300      -0.11238600
H       -6.52266300       2.16338500      -0.16179200
C        2.35342247       0.97051951       6.69663911
C        3.44099054       0.13796579       7.11377731
C        4.70819559       0.21331655       6.39428669
C        2.47507215       1.87481389       5.59330548
C        3.74221618       1.95038118       4.87389395
C        4.82971727       1.11771716       5.29100260
C        6.06174608       1.19084414       4.59175322
C        6.20251125       2.08331672       3.49273620
C        7.15407642       0.37147463       4.99102760
C        8.44264856       0.44761755       4.26003501
C        3.91809804       2.80756433       3.79808321
C        5.14356485       2.87733896       3.10603065
C        5.79556215      -0.56884596       6.75313697
C        7.01786922      -0.49354199       6.05616735
C        7.49075221       2.15998211       2.76135920
N        8.53711072       1.33760407       3.18700985
O        9.43339636      -0.24195804       4.56033963
O        7.67600464       2.91928142       1.79367477
C        3.26536215      -0.71901759       8.18967297
C        2.03995935      -0.78879928       8.88175842
C        1.12142090       0.89745282       7.39574629
C        0.98104565       0.00506817       8.49481612
C        0.02896076       1.71661377       6.99639664
C        0.16547118       2.58139685       5.93112922
C        1.38774828       2.65683036       5.23420836
C       -0.30723655      -0.07166009       9.22624439
C       -1.25965605       1.64040292       7.72734131
N       -1.35373630       0.75049158       8.80046717
O       -0.49238799      -0.83080882      10.19405368
O       -2.25056378       2.32971275       7.42697996
H        3.10710768       3.46353294       3.44675327
H        5.25580520       3.56905891       2.25269420
H        5.74236771      -1.27600195       7.59487089
H        7.86767012      -1.12813217       6.36348384
H        9.40549585       1.38904966       2.69424378
H        4.07650047      -1.37479267       8.54104255
H        1.92767838      -1.48037223       9.73528301
H       -0.68434944       3.21590494       5.62358758
H        1.44113705       3.36382316       4.39236889
H       -2.22207657       0.69890777       9.29329322
