80
Dimer: struct; Energy: -4906.06228 eV
C       -1.29972200       1.48833600      -0.03228100
C       -0.45010500       2.63965400       0.01843500
C        0.99654200       2.45238200       0.05441800
C       -0.76903400       0.15867800      -0.04877100
C        0.67752200      -0.02870400      -0.01297900
C        1.52709100       1.12265000       0.03785500
C        2.93347700       0.94084900       0.07277000
C        3.48023700      -0.37253000       0.05696900
C        3.79427800       2.07240500       0.12351100
C        5.26507800       1.88272800       0.16006300
C        1.24802600      -1.29258500      -0.02698300
C        2.64560500      -1.46904700       0.00777700
C        1.86805800       3.52983300       0.10418700
C        3.26457400       3.34539700       0.13880400
C        4.95087500      -0.56291500       0.09346700
N        5.75909100       0.57580800       0.14293500
O        6.06925500       2.83065500       0.20492200
O        5.48910000      -1.68427500       0.08194900
C       -1.02041300       3.90352800       0.03216900
C       -2.41794600       4.08003500      -0.00262400
C       -2.70602800       1.67000700      -0.06716000
C       -3.25245200       2.98347100      -0.05156500
C       -3.56691500       0.53850500      -0.11766500
C       -3.03687800      -0.73433100      -0.13279200
C       -1.64041100      -0.91883000      -0.09829200
C       -4.72314700       3.17392200      -0.08803700
C       -5.03773600       0.72818300      -0.15412500
N       -5.53143900       2.03522700      -0.13722100
O       -5.26133100       4.29529300      -0.07673500
O       -5.84203300      -0.21964700      -0.19870900
H        0.62972700      -2.20233100      -0.06573200
H        3.07286500      -2.48716200      -0.00439800
H        1.49989900       4.56697900       0.11841200
H        3.93550500       4.22152900       0.17822500
H        6.75033500       0.44779700       0.16755800
H       -0.40199700       4.81321100       0.07071000
H       -2.84532000       5.09816700       0.00933800
H       -3.70773700      -1.61056600      -0.17200800
H       -1.27202900      -1.95588300      -0.11238600
H       -6.52266300       2.16338500      -0.16179200
C        1.47216640       1.10092952       4.54061604
C        2.66528061       1.54804622       5.19370060
C        2.90612332       2.98097722       5.32732943
C        0.50907855       2.02092095       4.01528791
C        0.74971040       3.45379611       4.14901306
C        1.94290149       3.90085836       4.80200462
C        2.17722066       5.29382758       4.93209514
C        1.23204499       6.22399420       4.41673741
C        3.35701590       5.75775319       5.57771748
C        3.60245674       7.21438152       5.71394809
C       -0.14769178       4.39104042       3.65982133
C        0.08864475       5.77397231       3.79104088
C        4.04374550       3.47200258       5.94992690
C        4.27317899       4.85641978       6.07728939
C        1.47683439       7.68068936       4.55264929
N        2.64818850       8.09241658       5.19355530
O        4.61360710       7.68193838       6.26734135
O        0.68942975       8.54269805       4.12346167
C        3.56259125       0.61098472       5.68315609
C        3.32628695      -0.77191826       5.55199446
C        1.23777945      -0.29192229       4.41044667
C        2.18300805      -1.22180069       4.92608133
C        0.05812578      -0.75594167       3.76463153
C       -0.85773832       0.14566243       3.26504918
C       -0.62842864       1.53005046       3.39247394
C        1.93827123      -2.67857012       4.79016844
C       -0.18727309      -2.21258838       3.62831842
N        0.76706426      -3.09037250       4.14901765
O        2.72558615      -3.54054771       5.21955466
O       -1.19823562      -2.68028397       3.07471325
H       -1.07598486       4.08813449       3.15193070
H       -0.64311650       6.49827309       3.39207805
H        4.80756997       2.79789738       6.36654375
H        5.18788386       5.21983983       6.57783965
H        2.81345078       9.07416524       5.28529252
H        4.49075761       0.91401724       6.19121654
H        4.05792458      -1.49633694       5.95112897
H       -1.77240524      -0.21765284       2.76428585
H       -1.39205225       2.20434093       2.97582755
H        0.60195435      -4.07214715       4.05730906
