80
Dimer: struct; Energy: -4906.06228 eV
C       -1.29972200       1.48833600      -0.03228100
C       -0.45010500       2.63965400       0.01843500
C        0.99654200       2.45238200       0.05441800
C       -0.76903400       0.15867800      -0.04877100
C        0.67752200      -0.02870400      -0.01297900
C        1.52709100       1.12265000       0.03785500
C        2.93347700       0.94084900       0.07277000
C        3.48023700      -0.37253000       0.05696900
C        3.79427800       2.07240500       0.12351100
C        5.26507800       1.88272800       0.16006300
C        1.24802600      -1.29258500      -0.02698300
C        2.64560500      -1.46904700       0.00777700
C        1.86805800       3.52983300       0.10418700
C        3.26457400       3.34539700       0.13880400
C        4.95087500      -0.56291500       0.09346700
N        5.75909100       0.57580800       0.14293500
O        6.06925500       2.83065500       0.20492200
O        5.48910000      -1.68427500       0.08194900
C       -1.02041300       3.90352800       0.03216900
C       -2.41794600       4.08003500      -0.00262400
C       -2.70602800       1.67000700      -0.06716000
C       -3.25245200       2.98347100      -0.05156500
C       -3.56691500       0.53850500      -0.11766500
C       -3.03687800      -0.73433100      -0.13279200
C       -1.64041100      -0.91883000      -0.09829200
C       -4.72314700       3.17392200      -0.08803700
C       -5.03773600       0.72818300      -0.15412500
N       -5.53143900       2.03522700      -0.13722100
O       -5.26133100       4.29529300      -0.07673500
O       -5.84203300      -0.21964700      -0.19870900
H        0.62972700      -2.20233100      -0.06573200
H        3.07286500      -2.48716200      -0.00439800
H        1.49989900       4.56697900       0.11841200
H        3.93550500       4.22152900       0.17822500
H        6.75033500       0.44779700       0.16755800
H       -0.40199700       4.81321100       0.07071000
H       -2.84532000       5.09816700       0.00933800
H       -3.70773700      -1.61056600      -0.17200800
H       -1.27202900      -1.95588300      -0.11238600
H       -6.52266300       2.16338500      -0.16179200
C        0.35425891      10.31027337       2.55564849
C        0.60645152      11.02258758       1.33952282
C        1.69310334      11.99560976       1.29991500
C        1.13885115      10.52631278       3.73362729
C        2.22558704      11.49912268       3.69408824
C        2.47766107      12.21149557       2.47796688
C        3.53403648      13.15741320       2.43919721
C        4.32517021      13.38620848       3.59933543
C        3.80012544      13.87533500       1.24013218
C        4.90472915      14.86464719       1.19916776
C        3.01848401      11.74973961       4.80385023
C        4.06698035      12.69017707       4.76134155
C        1.98337553      12.71484967       0.15041348
C        3.03351014      13.65372078       0.11562475
C        5.42989569      14.37530599       3.55905622
N        5.65635879      15.05791865       2.36109767
O        5.18672119      15.52316172       0.18225199
O        6.15618169      14.61969410       4.53887772
C       -0.18613328      10.77190091       0.22966568
C       -1.23458876       9.83147395       0.27211562
C       -0.70204260       9.36442341       2.59453881
C       -1.49282860       9.13570770       1.43421269
C       -0.96835619       8.64662393       3.79362802
C       -0.20164651       8.86859755       4.91797828
C        0.84854324       9.80734353       4.88322645
C       -2.59763097       8.14659766       1.47444487
C       -2.07303249       7.65736588       3.83461898
N       -2.82433357       7.46414704       2.67246340
O       -3.32375647       7.90207817       0.49454965
O       -2.35531064       6.99898392       4.85153360
H        2.85704961      11.22321842       5.75681785
H        4.68270313      12.86986899       5.66014840
H        1.40390951      12.57785519      -0.77525756
H        3.24268632      14.21264321      -0.81343970
H        6.40086415      15.72463939       2.33365663
H       -0.02446638      11.29834029      -0.72331507
H       -1.85026762       9.65155012      -0.62674552
H       -0.41086720       8.30986501       5.84718338
H        1.42806351       9.94459229       5.80880837
H       -3.56889942       6.79749196       2.69977505
