80
Dimer: struct; Energy: -4906.06228 eV
C       -1.29972200       1.48833600      -0.03228100
C       -0.45010500       2.63965400       0.01843500
C        0.99654200       2.45238200       0.05441800
C       -0.76903400       0.15867800      -0.04877100
C        0.67752200      -0.02870400      -0.01297900
C        1.52709100       1.12265000       0.03785500
C        2.93347700       0.94084900       0.07277000
C        3.48023700      -0.37253000       0.05696900
C        3.79427800       2.07240500       0.12351100
C        5.26507800       1.88272800       0.16006300
C        1.24802600      -1.29258500      -0.02698300
C        2.64560500      -1.46904700       0.00777700
C        1.86805800       3.52983300       0.10418700
C        3.26457400       3.34539700       0.13880400
C        4.95087500      -0.56291500       0.09346700
N        5.75909100       0.57580800       0.14293500
O        6.06925500       2.83065500       0.20492200
O        5.48910000      -1.68427500       0.08194900
C       -1.02041300       3.90352800       0.03216900
C       -2.41794600       4.08003500      -0.00262400
C       -2.70602800       1.67000700      -0.06716000
C       -3.25245200       2.98347100      -0.05156500
C       -3.56691500       0.53850500      -0.11766500
C       -3.03687800      -0.73433100      -0.13279200
C       -1.64041100      -0.91883000      -0.09829200
C       -4.72314700       3.17392200      -0.08803700
C       -5.03773600       0.72818300      -0.15412500
N       -5.53143900       2.03522700      -0.13722100
O       -5.26133100       4.29529300      -0.07673500
O       -5.84203300      -0.21964700      -0.19870900
H        0.62972700      -2.20233100      -0.06573200
H        3.07286500      -2.48716200      -0.00439800
H        1.49989900       4.56697900       0.11841200
H        3.93550500       4.22152900       0.17822500
H        6.75033500       0.44779700       0.16755800
H       -0.40199700       4.81321100       0.07071000
H       -2.84532000       5.09816700       0.00933800
H       -3.70773700      -1.61056600      -0.17200800
H       -1.27202900      -1.95588300      -0.11238600
H       -6.52266300       2.16338500      -0.16179200
C        5.62968034       7.84425069       3.87143159
C        4.29447340       7.99519749       4.36579155
C        3.17452596       7.83022281       3.44511016
C        5.89611553       7.53584998       2.49891807
C        4.77630482       7.37067996       1.57823344
C        3.44111849       7.52175398       2.07262367
C        2.35220098       7.36135050       1.17779316
C        2.59633327       7.05458621      -0.18985287
C        1.01817170       7.50759577       1.64996917
C       -0.12086159       7.33996088       0.71451861
C        4.97381850       7.07151182       0.23862421
C        3.88946397       6.91290407      -0.64714832
C        1.86051690       7.96488547       3.86720483
C        0.78134181       7.80487715       2.97543672
C        1.45781709       6.88679440      -1.12579169
N        0.16430407       7.03913306      -0.61985962
O       -1.30848801       7.45514663       1.06602154
O        1.60601456       6.61853375      -2.33133754
C        4.09679940       8.29407765       5.70534856
C        5.18109112       8.45265560       6.59114101
C        6.71860000       8.00465754       4.76610532
C        6.47413959       8.31119618       6.13368831
C        8.05267173       7.85866241       4.29396975
C        8.28913616       7.56153186       2.96842173
C        7.21003678       7.40140386       2.07665172
C        7.61266829       8.47903147       7.06970609
C        9.19172177       8.02638989       5.22941295
N        8.90622906       8.32698423       6.56377773
O        7.46443133       8.74707804       8.27528458
O       10.37939604       7.91150382       4.87799564
H        5.98411239       6.94738513      -0.18010212
H        4.07582821       6.67478014      -1.70913837
H        1.61406769       8.20146749       4.91348728
H       -0.25530309       7.91772724       3.33867483
H       -0.60325028       6.92611382      -1.25045041
H        3.08644161       8.41797643       6.12400493
H        4.99481491       8.69058739       7.65324931
H        9.32577468       7.44885603       2.60501807
H        7.45624733       7.16494025       1.03030178
H        9.67368736       8.44007752       7.19446854
