80
Dimer: struct; Energy: -4906.06228 eV
C       -1.29972200       1.48833600      -0.03228100
C       -0.45010500       2.63965400       0.01843500
C        0.99654200       2.45238200       0.05441800
C       -0.76903400       0.15867800      -0.04877100
C        0.67752200      -0.02870400      -0.01297900
C        1.52709100       1.12265000       0.03785500
C        2.93347700       0.94084900       0.07277000
C        3.48023700      -0.37253000       0.05696900
C        3.79427800       2.07240500       0.12351100
C        5.26507800       1.88272800       0.16006300
C        1.24802600      -1.29258500      -0.02698300
C        2.64560500      -1.46904700       0.00777700
C        1.86805800       3.52983300       0.10418700
C        3.26457400       3.34539700       0.13880400
C        4.95087500      -0.56291500       0.09346700
N        5.75909100       0.57580800       0.14293500
O        6.06925500       2.83065500       0.20492200
O        5.48910000      -1.68427500       0.08194900
C       -1.02041300       3.90352800       0.03216900
C       -2.41794600       4.08003500      -0.00262400
C       -2.70602800       1.67000700      -0.06716000
C       -3.25245200       2.98347100      -0.05156500
C       -3.56691500       0.53850500      -0.11766500
C       -3.03687800      -0.73433100      -0.13279200
C       -1.64041100      -0.91883000      -0.09829200
C       -4.72314700       3.17392200      -0.08803700
C       -5.03773600       0.72818300      -0.15412500
N       -5.53143900       2.03522700      -0.13722100
O       -5.26133100       4.29529300      -0.07673500
O       -5.84203300      -0.21964700      -0.19870900
H        0.62972700      -2.20233100      -0.06573200
H        3.07286500      -2.48716200      -0.00439800
H        1.49989900       4.56697900       0.11841200
H        3.93550500       4.22152900       0.17822500
H        6.75033500       0.44779700       0.16755800
H       -0.40199700       4.81321100       0.07071000
H       -2.84532000       5.09816700       0.00933800
H       -3.70773700      -1.61056600      -0.17200800
H       -1.27202900      -1.95588300      -0.11238600
H       -6.52266300       2.16338500      -0.16179200
C        0.59531794       0.36454232       8.85517902
C       -0.81594820       0.55078828       9.00878440
C       -1.56052739       1.23033048       7.95380699
C        1.29587026       0.82651550       7.69513622
C        0.55140788       1.50587082       6.64006775
C       -0.85984122       1.69219419       6.79377916
C       -1.58390784       2.35271626       5.76828885
C       -0.90582316       2.81901552       4.60771712
C       -2.98676531       2.54746260       5.90258991
C       -3.74433945       3.23818541       4.83041946
C        1.17667252       1.97442822       5.49439581
C        0.45389196       2.63007424       4.47788673
C       -2.92819145       1.43900458       8.04797641
C       -3.64415160       2.09558543       7.02730282
C       -1.66275527       3.50975613       3.53520331
N       -3.03882196       3.67976420       3.70808469
O       -4.97059423       3.43856317       4.88895599
O       -1.12769870       3.93984422       2.49789633
C       -1.44136355       0.08207592      10.15420210
C       -0.71865058      -0.57358840      11.17069314
C        1.31944054      -0.29588936       9.88055403
C        0.64105557      -0.76224507      11.04086272
C        2.72233987      -0.49047323       9.74644754
C        3.37942083      -0.03833764       8.62168199
C        2.66352467       0.61813076       7.60095080
C        1.39797511      -1.45299927      12.11346563
C        3.47993813      -1.18112360      10.81867347
N        2.77410385      -1.62279318      11.94077791
O        0.86285671      -1.88326347      13.15065591
O        4.70622751      -1.38132688      10.76039730
H        2.25919652       1.85088390       5.33847430
H        0.97743074       2.99305551       3.57599470
H       -3.50275862       1.09924191       8.92310447
H       -4.73307065       2.24836804       7.12840914
H       -3.54925134       4.14529997       2.98538415
H       -2.52393797       0.20549740      10.30991555
H       -1.24215963      -0.93680985      12.07257608
H        4.46840175      -0.19088863       8.52055720
H        3.23789883       0.95808624       6.72578941
H        3.28441364      -2.08830227      12.66357693
