80
Dimer: struct; Energy: -4906.06228 eV
C       -1.29972200       1.48833600      -0.03228100
C       -0.45010500       2.63965400       0.01843500
C        0.99654200       2.45238200       0.05441800
C       -0.76903400       0.15867800      -0.04877100
C        0.67752200      -0.02870400      -0.01297900
C        1.52709100       1.12265000       0.03785500
C        2.93347700       0.94084900       0.07277000
C        3.48023700      -0.37253000       0.05696900
C        3.79427800       2.07240500       0.12351100
C        5.26507800       1.88272800       0.16006300
C        1.24802600      -1.29258500      -0.02698300
C        2.64560500      -1.46904700       0.00777700
C        1.86805800       3.52983300       0.10418700
C        3.26457400       3.34539700       0.13880400
C        4.95087500      -0.56291500       0.09346700
N        5.75909100       0.57580800       0.14293500
O        6.06925500       2.83065500       0.20492200
O        5.48910000      -1.68427500       0.08194900
C       -1.02041300       3.90352800       0.03216900
C       -2.41794600       4.08003500      -0.00262400
C       -2.70602800       1.67000700      -0.06716000
C       -3.25245200       2.98347100      -0.05156500
C       -3.56691500       0.53850500      -0.11766500
C       -3.03687800      -0.73433100      -0.13279200
C       -1.64041100      -0.91883000      -0.09829200
C       -4.72314700       3.17392200      -0.08803700
C       -5.03773600       0.72818300      -0.15412500
N       -5.53143900       2.03522700      -0.13722100
O       -5.26133100       4.29529300      -0.07673500
O       -5.84203300      -0.21964700      -0.19870900
H        0.62972700      -2.20233100      -0.06573200
H        3.07286500      -2.48716200      -0.00439800
H        1.49989900       4.56697900       0.11841200
H        3.93550500       4.22152900       0.17822500
H        6.75033500       0.44779700       0.16755800
H       -0.40199700       4.81321100       0.07071000
H       -2.84532000       5.09816700       0.00933800
H       -3.70773700      -1.61056600      -0.17200800
H       -1.27202900      -1.95588300      -0.11238600
H       -6.52266300       2.16338500      -0.16179200
C        6.24258824       3.02329844       6.81317620
C        5.86484552       2.99392121       5.43245113
C        6.02727310       4.19975576       4.62701121
C        6.77528775       4.20297649       7.42512635
C        6.93792389       5.40875125       6.61978538
C        6.56005427       5.37935175       5.23909069
C        6.71793184       6.55145416       4.45586477
C        7.24568057       7.73375087       5.04562434
C        6.34815060       6.54216103       3.08212991
C        6.51306467       7.76769156       2.26271284
C        7.44864279       6.58008951       7.15848659
C        7.60398850       7.74238537       6.37713507
C        5.67847223       4.23022093       3.28524835
C        5.83667277       5.39639598       2.51034174
C        7.41088051       8.95956288       4.22681510
N        7.03503545       8.90623569       2.88210437
O        6.20855292       7.82286782       1.05792790
O        7.86603944      10.02311079       4.68394009
C        5.35439810       1.82265390       4.89356929
C        5.19907135       0.66035610       5.67485104
C        6.08473024       1.85134360       7.59645147
C        5.55717346       0.66918733       7.00636634
C        6.45426493       1.86061033       8.97025357
C        6.96556294       3.00658193       9.54174545
C        7.12389029       4.17272282       8.76689186
C        5.39192087      -0.55669875       7.82517064
C        6.28926294       0.63509077       9.78970316
N        5.76748477      -0.50336083       9.16997105
O        4.93696287      -1.62028653       7.36796506
O        6.59347358       0.57984875      10.99455474
H        7.75065125       6.64345976       8.21499405
H        8.01333072       8.66147124       6.83208299
H        5.26579969       3.34478181       2.77818407
H        5.55063510       5.39256601       1.44381585
H        7.14625253       9.73228285       2.32998606
H        5.05261609       1.75934691       3.83698670
H        4.78991124      -0.25888847       5.21992048
H        7.25145255       3.01058764      10.60834216
H        7.53642799       5.05831292       9.27377023
H        5.65616912      -1.32946456       9.72198073
