80
Dimer: struct; Energy: -4906.06228 eV
C       -1.29972200       1.48833600      -0.03228100
C       -0.45010500       2.63965400       0.01843500
C        0.99654200       2.45238200       0.05441800
C       -0.76903400       0.15867800      -0.04877100
C        0.67752200      -0.02870400      -0.01297900
C        1.52709100       1.12265000       0.03785500
C        2.93347700       0.94084900       0.07277000
C        3.48023700      -0.37253000       0.05696900
C        3.79427800       2.07240500       0.12351100
C        5.26507800       1.88272800       0.16006300
C        1.24802600      -1.29258500      -0.02698300
C        2.64560500      -1.46904700       0.00777700
C        1.86805800       3.52983300       0.10418700
C        3.26457400       3.34539700       0.13880400
C        4.95087500      -0.56291500       0.09346700
N        5.75909100       0.57580800       0.14293500
O        6.06925500       2.83065500       0.20492200
O        5.48910000      -1.68427500       0.08194900
C       -1.02041300       3.90352800       0.03216900
C       -2.41794600       4.08003500      -0.00262400
C       -2.70602800       1.67000700      -0.06716000
C       -3.25245200       2.98347100      -0.05156500
C       -3.56691500       0.53850500      -0.11766500
C       -3.03687800      -0.73433100      -0.13279200
C       -1.64041100      -0.91883000      -0.09829200
C       -4.72314700       3.17392200      -0.08803700
C       -5.03773600       0.72818300      -0.15412500
N       -5.53143900       2.03522700      -0.13722100
O       -5.26133100       4.29529300      -0.07673500
O       -5.84203300      -0.21964700      -0.19870900
H        0.62972700      -2.20233100      -0.06573200
H        3.07286500      -2.48716200      -0.00439800
H        1.49989900       4.56697900       0.11841200
H        3.93550500       4.22152900       0.17822500
H        6.75033500       0.44779700       0.16755800
H       -0.40199700       4.81321100       0.07071000
H       -2.84532000       5.09816700       0.00933800
H       -3.70773700      -1.61056600      -0.17200800
H       -1.27202900      -1.95588300      -0.11238600
H       -6.52266300       2.16338500      -0.16179200
C        3.91481957       1.69640706       5.73260823
C        4.39125346       2.23197416       4.49319993
C        4.29616739       3.66897991       4.25841016
C        3.34790830       2.53187380       6.74774320
C        3.25294345       3.96883838       6.51315461
C        3.72928684       4.50433812       5.27367705
C        3.63702154       5.90129544       5.04522661
C        3.07692847       6.74825296       6.04178031
C        4.10483352       6.45243136       3.81992128
C        4.00850811       7.91325778       3.58060223
C        2.71349919       4.82653070       7.45995442
C        2.62361559       6.21371669       7.22928120
C        4.74102962       4.24364912       3.07740607
C        4.64772668       5.63175476       2.85395763
C        2.98033554       8.20910014       5.80313832
N        3.45173189       8.70791078       4.58604191
O        4.39945119       8.45483588       2.53125231
O        2.50135475       9.00089936       6.63434135
C        4.93093937       1.37450085       3.54647084
C        5.02087313      -0.01264820       3.77710732
C        4.00699612       0.29955461       5.96113431
C        4.56731619      -0.54707782       4.96450749
C        3.53899532      -0.25170203       7.18631402
C        2.99602710       0.56924064       8.15198383
C        2.90280045       1.95732651       7.92865307
C        4.66391426      -2.00799868       5.20309632
C        3.63523842      -1.71255859       7.42559812
N        4.19227468      -2.50691913       6.42006625
O        5.14309411      -2.79973841       4.37196603
O        3.24409012      -2.25430469       8.47477746
H        2.33658177       4.45437057       8.42476685
H        2.18941992       6.87355735       8.00086523
H        5.18264165       3.63599671       2.27294812
H        5.00988228       6.06274976       1.90401219
H        3.38674447       9.69247746       4.42491191
H        5.30801696       1.74681086       2.58177158
H        5.45526568      -0.67258065       3.00563038
H        2.63364311       0.13831858       9.10191092
H        2.46111530       2.56515781       8.73291559
H        4.25728089      -3.49150753       6.58104169
