80
Dimer: struct; Energy: -4906.06228 eV
C       -1.29972200       1.48833600      -0.03228100
C       -0.45010500       2.63965400       0.01843500
C        0.99654200       2.45238200       0.05441800
C       -0.76903400       0.15867800      -0.04877100
C        0.67752200      -0.02870400      -0.01297900
C        1.52709100       1.12265000       0.03785500
C        2.93347700       0.94084900       0.07277000
C        3.48023700      -0.37253000       0.05696900
C        3.79427800       2.07240500       0.12351100
C        5.26507800       1.88272800       0.16006300
C        1.24802600      -1.29258500      -0.02698300
C        2.64560500      -1.46904700       0.00777700
C        1.86805800       3.52983300       0.10418700
C        3.26457400       3.34539700       0.13880400
C        4.95087500      -0.56291500       0.09346700
N        5.75909100       0.57580800       0.14293500
O        6.06925500       2.83065500       0.20492200
O        5.48910000      -1.68427500       0.08194900
C       -1.02041300       3.90352800       0.03216900
C       -2.41794600       4.08003500      -0.00262400
C       -2.70602800       1.67000700      -0.06716000
C       -3.25245200       2.98347100      -0.05156500
C       -3.56691500       0.53850500      -0.11766500
C       -3.03687800      -0.73433100      -0.13279200
C       -1.64041100      -0.91883000      -0.09829200
C       -4.72314700       3.17392200      -0.08803700
C       -5.03773600       0.72818300      -0.15412500
N       -5.53143900       2.03522700      -0.13722100
O       -5.26133100       4.29529300      -0.07673500
O       -5.84203300      -0.21964700      -0.19870900
H        0.62972700      -2.20233100      -0.06573200
H        3.07286500      -2.48716200      -0.00439800
H        1.49989900       4.56697900       0.11841200
H        3.93550500       4.22152900       0.17822500
H        6.75033500       0.44779700       0.16755800
H       -0.40199700       4.81321100       0.07071000
H       -2.84532000       5.09816700       0.00933800
H       -3.70773700      -1.61056600      -0.17200800
H       -1.27202900      -1.95588300      -0.11238600
H       -6.52266300       2.16338500      -0.16179200
C       12.23079791       3.56392050       2.54671070
C       11.48939208       2.48830535       1.96077234
C       10.18790186       2.13719129       2.51933768
C       11.73035710       4.30436328       3.66527922
C       10.42886905       3.95347969       4.22378338
C        9.68755634       2.87777633       3.63787776
C        8.42226176       2.53630401       4.18066548
C        7.90763690       3.26028553       5.29204866
C        7.67053427       1.47048017       3.61242494
C        6.34730740       1.11303912       4.17976311
C        9.89382856       4.63547891       5.30622268
C        8.63651937       4.29327289       5.84254608
C        9.42557400       1.10510622       1.99343429
C        8.16910420       0.76870012       2.53527052
C        6.58452880       2.90340828       5.85983231
N        5.88012753       1.85008156       5.27104379
O        5.64304827       0.19258141       3.72803835
O        6.08106519       3.49785410       6.82958776
C       12.02414181       1.80643019       0.87822612
C       13.28139581       2.14861358       0.34186183
C       13.49603369       3.90543123       2.00406321
C       14.01026799       3.18142511       0.89258298
C       14.24793818       4.97108765       2.57238529
C       13.74913608       5.67254717       3.64961811
C       12.49266152       5.33627719       4.19141547
C       15.33343929       3.53825835       0.32475086
C       15.57122249       5.32847301       2.00509717
N       16.03802826       4.59139989       0.91367241
O       15.83677569       2.94393687      -0.64513426
O       16.27570615       6.24871888       2.45688632
H       10.43200492       5.46790068       5.78462956
H        8.23451216       4.85337411       6.70506235
H        9.77487701       0.51229984       1.13437479
H        7.58308551      -0.05801671       2.09660084
H        4.98833411       1.60931222       5.65352569
H       11.48577187       0.97415345       0.39977009
H       13.68341800       1.58867922      -0.52082935
H       14.33517391       6.49917359       4.08850977
H       12.14321121       5.92886337       5.05054815
H       16.92982642       4.83202914       0.53111934
