80
Dimer: struct; Energy: -4906.06228 eV
C       -1.29972200       1.48833600      -0.03228100
C       -0.45010500       2.63965400       0.01843500
C        0.99654200       2.45238200       0.05441800
C       -0.76903400       0.15867800      -0.04877100
C        0.67752200      -0.02870400      -0.01297900
C        1.52709100       1.12265000       0.03785500
C        2.93347700       0.94084900       0.07277000
C        3.48023700      -0.37253000       0.05696900
C        3.79427800       2.07240500       0.12351100
C        5.26507800       1.88272800       0.16006300
C        1.24802600      -1.29258500      -0.02698300
C        2.64560500      -1.46904700       0.00777700
C        1.86805800       3.52983300       0.10418700
C        3.26457400       3.34539700       0.13880400
C        4.95087500      -0.56291500       0.09346700
N        5.75909100       0.57580800       0.14293500
O        6.06925500       2.83065500       0.20492200
O        5.48910000      -1.68427500       0.08194900
C       -1.02041300       3.90352800       0.03216900
C       -2.41794600       4.08003500      -0.00262400
C       -2.70602800       1.67000700      -0.06716000
C       -3.25245200       2.98347100      -0.05156500
C       -3.56691500       0.53850500      -0.11766500
C       -3.03687800      -0.73433100      -0.13279200
C       -1.64041100      -0.91883000      -0.09829200
C       -4.72314700       3.17392200      -0.08803700
C       -5.03773600       0.72818300      -0.15412500
N       -5.53143900       2.03522700      -0.13722100
O       -5.26133100       4.29529300      -0.07673500
O       -5.84203300      -0.21964700      -0.19870900
H        0.62972700      -2.20233100      -0.06573200
H        3.07286500      -2.48716200      -0.00439800
H        1.49989900       4.56697900       0.11841200
H        3.93550500       4.22152900       0.17822500
H        6.75033500       0.44779700       0.16755800
H       -0.40199700       4.81321100       0.07071000
H       -2.84532000       5.09816700       0.00933800
H       -3.70773700      -1.61056600      -0.17200800
H       -1.27202900      -1.95588300      -0.11238600
H       -6.52266300       2.16338500      -0.16179200
C       11.57017989       1.99822085       6.45256585
C       12.94506473       1.93115712       6.05867701
C       13.27032375       1.73257074       4.65015895
C       10.50595809       1.87593278       5.50263444
C       10.83107812       1.67753861       4.09414090
C       12.20598282       1.61036502       3.70032321
C       12.52243125       1.41738770       2.33108533
C       11.47905211       1.29375518       1.37179625
C       13.88264495       1.34789394       1.92003631
C       14.21401069       1.14606869       0.48824395
C        9.84238074       1.55273904       3.12979206
C       10.16078935       1.36116987       1.77056752
C       14.58346545       1.65953644       4.21056526
C       14.89402318       1.46772128       2.84959768
C       11.80969646       1.09195615      -0.06009276
N       13.15842540       1.02966872      -0.41981598
O       15.38225901       1.07683844       0.06672097
O       10.94359088       0.97698035      -0.94547898
C       13.93381715       2.05620376       7.02280839
C       13.61546591       2.24780369       8.38200142
C       11.25363798       2.19114594       7.82168914
C       12.29720833       2.31495314       8.78066921
C        9.89345057       2.26041782       8.23286499
C        8.88233759       2.14040070       7.30306611
C        9.19281661       1.94870284       5.94210876
C       11.96660678       2.51673646      10.21263698
C        9.56208061       2.46215402       9.66468828
N       10.61788429       2.57875169      10.57247458
O       12.83273194       2.63192305      11.09796287
O        8.39388806       2.53112993      10.08638912
H        8.77434686       1.59887267       3.39172380
H        9.35315834       1.26490112       1.02375967
H       15.42942701       1.74878622       4.90899116
H       15.94873534       1.41331794       2.52721246
H       13.38158136       0.89364875      -1.38483295
H       15.00182766       2.01026041       6.76072119
H       14.42306862       2.34429683       9.12889588
H        7.82755836       2.19458659       7.62537362
H        8.34702236       1.85930555       5.24352228
H       10.39487433       2.71472716      11.53752922
