80
Dimer: struct; Energy: -4906.06228 eV
C       -1.29972200       1.48833600      -0.03228100
C       -0.45010500       2.63965400       0.01843500
C        0.99654200       2.45238200       0.05441800
C       -0.76903400       0.15867800      -0.04877100
C        0.67752200      -0.02870400      -0.01297900
C        1.52709100       1.12265000       0.03785500
C        2.93347700       0.94084900       0.07277000
C        3.48023700      -0.37253000       0.05696900
C        3.79427800       2.07240500       0.12351100
C        5.26507800       1.88272800       0.16006300
C        1.24802600      -1.29258500      -0.02698300
C        2.64560500      -1.46904700       0.00777700
C        1.86805800       3.52983300       0.10418700
C        3.26457400       3.34539700       0.13880400
C        4.95087500      -0.56291500       0.09346700
N        5.75909100       0.57580800       0.14293500
O        6.06925500       2.83065500       0.20492200
O        5.48910000      -1.68427500       0.08194900
C       -1.02041300       3.90352800       0.03216900
C       -2.41794600       4.08003500      -0.00262400
C       -2.70602800       1.67000700      -0.06716000
C       -3.25245200       2.98347100      -0.05156500
C       -3.56691500       0.53850500      -0.11766500
C       -3.03687800      -0.73433100      -0.13279200
C       -1.64041100      -0.91883000      -0.09829200
C       -4.72314700       3.17392200      -0.08803700
C       -5.03773600       0.72818300      -0.15412500
N       -5.53143900       2.03522700      -0.13722100
O       -5.26133100       4.29529300      -0.07673500
O       -5.84203300      -0.21964700      -0.19870900
H        0.62972700      -2.20233100      -0.06573200
H        3.07286500      -2.48716200      -0.00439800
H        1.49989900       4.56697900       0.11841200
H        3.93550500       4.22152900       0.17822500
H        6.75033500       0.44779700       0.16755800
H       -0.40199700       4.81321100       0.07071000
H       -2.84532000       5.09816700       0.00933800
H       -3.70773700      -1.61056600      -0.17200800
H       -1.27202900      -1.95588300      -0.11238600
H       -6.52266300       2.16338500      -0.16179200
C        5.81317040       1.98765649       6.30774410
C        5.93137290       2.07447018       4.88350892
C        7.25637608       2.21746577       4.28931035
C        6.95903589       2.03716689       7.16473479
C        8.28403281       2.17996784       6.57067385
C        8.40216725       2.26689503       5.14643527
C        9.69016449       2.40583909       4.56855128
C       10.84115411       2.45683840       5.40328628
C        9.82818074       2.49389304       3.15533863
C       11.17493187       2.63922912       2.55060325
C        9.42926380       2.23340564       7.35083824
C       10.70700000       2.37145427       6.77299142
C        7.43179099       2.30645843       2.91663862
C        8.71279265       2.44445726       2.34614499
C       12.18814066       2.60212404       4.79923826
N       12.27780347       2.68500742       3.40731830
O       11.36100385       2.72126245       1.32344136
O       13.23141647       2.65272585       5.47472483
C        4.78633159       2.02077726       4.10324307
C        3.50861340       1.88269805       4.68102687
C        4.52530639       1.84875677       6.88569792
C        3.37457289       1.79757420       6.05071120
C        4.38717190       1.76093090       8.29891391
C        5.50274981       1.81055267       9.10780397
C        6.78375108       1.94843266       8.53738739
C        2.02750159       1.65230902       6.65473315
C        3.04039578       1.61568505       8.90366116
N        1.93773915       1.56970285       8.04667433
O        0.98427042       1.60149450       5.97921167
O        2.85415143       1.53391535      10.13080820
H        9.38086937       2.16991204       8.44859024
H       11.60213382       2.41130557       7.41828578
H        6.57683070       2.27246322       2.22432189
H        8.82341740       2.51308463       1.24962224
H       13.18553873       2.78294913       2.99990953
H        4.83487329       2.08407311       3.00547977
H        2.61338910       1.84262584       4.03577338
H        5.39222526       1.74213704      10.20438096
H        7.63884304       1.98257244       9.22951099
H        1.02994050       1.47181131       8.45394829
