80
Dimer: struct; Energy: -4906.06228 eV
C       -1.29972200       1.48833600      -0.03228100
C       -0.45010500       2.63965400       0.01843500
C        0.99654200       2.45238200       0.05441800
C       -0.76903400       0.15867800      -0.04877100
C        0.67752200      -0.02870400      -0.01297900
C        1.52709100       1.12265000       0.03785500
C        2.93347700       0.94084900       0.07277000
C        3.48023700      -0.37253000       0.05696900
C        3.79427800       2.07240500       0.12351100
C        5.26507800       1.88272800       0.16006300
C        1.24802600      -1.29258500      -0.02698300
C        2.64560500      -1.46904700       0.00777700
C        1.86805800       3.52983300       0.10418700
C        3.26457400       3.34539700       0.13880400
C        4.95087500      -0.56291500       0.09346700
N        5.75909100       0.57580800       0.14293500
O        6.06925500       2.83065500       0.20492200
O        5.48910000      -1.68427500       0.08194900
C       -1.02041300       3.90352800       0.03216900
C       -2.41794600       4.08003500      -0.00262400
C       -2.70602800       1.67000700      -0.06716000
C       -3.25245200       2.98347100      -0.05156500
C       -3.56691500       0.53850500      -0.11766500
C       -3.03687800      -0.73433100      -0.13279200
C       -1.64041100      -0.91883000      -0.09829200
C       -4.72314700       3.17392200      -0.08803700
C       -5.03773600       0.72818300      -0.15412500
N       -5.53143900       2.03522700      -0.13722100
O       -5.26133100       4.29529300      -0.07673500
O       -5.84203300      -0.21964700      -0.19870900
H        0.62972700      -2.20233100      -0.06573200
H        3.07286500      -2.48716200      -0.00439800
H        1.49989900       4.56697900       0.11841200
H        3.93550500       4.22152900       0.17822500
H        6.75033500       0.44779700       0.16755800
H       -0.40199700       4.81321100       0.07071000
H       -2.84532000       5.09816700       0.00933800
H       -3.70773700      -1.61056600      -0.17200800
H       -1.27202900      -1.95588300      -0.11238600
H       -6.52266300       2.16338500      -0.16179200
C        8.71712448       4.57457334       4.51501105
C        8.65951143       4.48140508       3.08744154
C        8.61562234       5.70775969       2.29795990
C        8.73296740       5.83763524       5.18904051
C        8.68927002       7.06399183       4.39970066
C        8.63153918       6.97076329       2.97213518
C        8.58893765       8.16282089       2.20442688
C        8.60397093       9.42766785       2.85565398
C        8.53127120       8.09094371       0.78475077
C        8.48667983       9.33730811      -0.01846368
C        8.70228259       8.31506398       4.99779369
C        8.65987669       9.49694794       4.23168260
C        8.55896353       5.67896336       0.91272407
C        8.51672094       6.86517708       0.15339248
C        8.55943573      10.67436512       2.05308486
N        8.50332903      10.55767840       0.66183128
O        8.43554605       9.34057798      -1.26130447
O        8.56989151      11.80885725       2.56307049
C        8.64676775       3.23048812       2.48922612
C        8.68920630       2.04861041       3.25527298
C        8.75968978       3.38266060       5.28276731
C        8.74486044       2.11801631       4.63125755
C        8.81712063       3.45443647       6.70245878
C        8.83150272       4.68035650       7.33348396
C        8.78937752       5.86657377       6.57423153
C        8.78936984       0.87123282       5.43381311
C        8.86162013       2.20805508       7.50568648
N        8.84519293       0.98784249       6.82509572
O        8.77912980      -0.26323437       4.92379154
O        8.91247941       2.20463006       8.74853189
H        8.74617929       8.42922650       6.09162773
H        8.67143709      10.48005411       4.73430185
H        8.54498246       4.72875163       0.35746068
H        8.47191248       6.81291550      -0.94868312
H        8.47328821      11.39777935       0.12064211
H        8.60307848       3.11645632       1.39536374
H        8.67785952       1.06540682       2.75271318
H        8.87610595       4.73273888       8.43559289
H        8.80322615       6.81689555       7.12928070
H        8.87518137       0.14766187       7.36615990
