80
Dimer: struct; Energy: -4906.06228 eV
C       -1.29972200       1.48833600      -0.03228100
C       -0.45010500       2.63965400       0.01843500
C        0.99654200       2.45238200       0.05441800
C       -0.76903400       0.15867800      -0.04877100
C        0.67752200      -0.02870400      -0.01297900
C        1.52709100       1.12265000       0.03785500
C        2.93347700       0.94084900       0.07277000
C        3.48023700      -0.37253000       0.05696900
C        3.79427800       2.07240500       0.12351100
C        5.26507800       1.88272800       0.16006300
C        1.24802600      -1.29258500      -0.02698300
C        2.64560500      -1.46904700       0.00777700
C        1.86805800       3.52983300       0.10418700
C        3.26457400       3.34539700       0.13880400
C        4.95087500      -0.56291500       0.09346700
N        5.75909100       0.57580800       0.14293500
O        6.06925500       2.83065500       0.20492200
O        5.48910000      -1.68427500       0.08194900
C       -1.02041300       3.90352800       0.03216900
C       -2.41794600       4.08003500      -0.00262400
C       -2.70602800       1.67000700      -0.06716000
C       -3.25245200       2.98347100      -0.05156500
C       -3.56691500       0.53850500      -0.11766500
C       -3.03687800      -0.73433100      -0.13279200
C       -1.64041100      -0.91883000      -0.09829200
C       -4.72314700       3.17392200      -0.08803700
C       -5.03773600       0.72818300      -0.15412500
N       -5.53143900       2.03522700      -0.13722100
O       -5.26133100       4.29529300      -0.07673500
O       -5.84203300      -0.21964700      -0.19870900
H        0.62972700      -2.20233100      -0.06573200
H        3.07286500      -2.48716200      -0.00439800
H        1.49989900       4.56697900       0.11841200
H        3.93550500       4.22152900       0.17822500
H        6.75033500       0.44779700       0.16755800
H       -0.40199700       4.81321100       0.07071000
H       -2.84532000       5.09816700       0.00933800
H       -3.70773700      -1.61056600      -0.17200800
H       -1.27202900      -1.95588300      -0.11238600
H       -6.52266300       2.16338500      -0.16179200
C        7.74477209       1.28193934       9.55326944
C        7.83954108      -0.14575261       9.50160889
C        7.33639070      -0.84775046       8.32551712
C        7.17013665       2.03956235       8.48289868
C        6.66714762       1.33772725       7.30674101
C        6.76183582      -0.08997849       7.25518441
C        6.27283399      -0.77263991       6.11192467
C        5.69841672      -0.03758066       5.03773043
C        6.35788758      -2.19103470       6.04196677
C        5.84660382      -2.90532858       4.84658432
C        6.10076269       2.01894477       6.23986852
C        5.61615419       1.33718050       5.10588164
C        7.40140754      -2.22890417       8.22013694
C        6.91459253      -2.90363052       7.08293537
C        5.18699335      -0.75120544       3.84209651
N        5.29042366      -2.14437545       3.81508247
O        5.89226059      -4.14251563       4.72591023
O        4.67460105      -0.16570126       2.87157806
C        8.40611144      -0.82704961      10.56821554
C        8.89075152      -0.14534478      11.70217598
C        8.23367592       1.96465419      10.69641901
C        8.80821183       1.22935247      11.77031376
C        8.14845198       3.38302999      10.76656828
C        7.59155500       4.09528702       9.72549422
C        7.10483836       3.42065289       8.58824934
C        9.31964971       1.94295484      12.96603468
C        8.65965916       4.09732522      11.96200587
N        9.21599440       3.33611556      12.99323978
O        9.83222856       1.35744166      13.93643662
O        8.61382073       5.33447441      12.08293492
H        6.00969187       3.11582115       6.24097576
H        5.16984057       1.90497655       4.27061564
H        7.83546266      -2.84685449       9.02085460
H        6.97907279      -4.00447031       7.02545693
H        4.94579564      -2.62562862       3.00936249
H        8.49731567      -1.92392106      10.56690071
H        9.33729478      -0.71306408      12.53744738
H        7.52683574       5.19614458       9.78295306
H        6.67063299       4.03838334       7.78746369
H        9.56061853       3.81723329      13.79903948
