80
Dimer: struct; Energy: -4906.06228 eV
C       -1.29972200       1.48833600      -0.03228100
C       -0.45010500       2.63965400       0.01843500
C        0.99654200       2.45238200       0.05441800
C       -0.76903400       0.15867800      -0.04877100
C        0.67752200      -0.02870400      -0.01297900
C        1.52709100       1.12265000       0.03785500
C        2.93347700       0.94084900       0.07277000
C        3.48023700      -0.37253000       0.05696900
C        3.79427800       2.07240500       0.12351100
C        5.26507800       1.88272800       0.16006300
C        1.24802600      -1.29258500      -0.02698300
C        2.64560500      -1.46904700       0.00777700
C        1.86805800       3.52983300       0.10418700
C        3.26457400       3.34539700       0.13880400
C        4.95087500      -0.56291500       0.09346700
N        5.75909100       0.57580800       0.14293500
O        6.06925500       2.83065500       0.20492200
O        5.48910000      -1.68427500       0.08194900
C       -1.02041300       3.90352800       0.03216900
C       -2.41794600       4.08003500      -0.00262400
C       -2.70602800       1.67000700      -0.06716000
C       -3.25245200       2.98347100      -0.05156500
C       -3.56691500       0.53850500      -0.11766500
C       -3.03687800      -0.73433100      -0.13279200
C       -1.64041100      -0.91883000      -0.09829200
C       -4.72314700       3.17392200      -0.08803700
C       -5.03773600       0.72818300      -0.15412500
N       -5.53143900       2.03522700      -0.13722100
O       -5.26133100       4.29529300      -0.07673500
O       -5.84203300      -0.21964700      -0.19870900
H        0.62972700      -2.20233100      -0.06573200
H        3.07286500      -2.48716200      -0.00439800
H        1.49989900       4.56697900       0.11841200
H        3.93550500       4.22152900       0.17822500
H        6.75033500       0.44779700       0.16755800
H       -0.40199700       4.81321100       0.07071000
H       -2.84532000       5.09816700       0.00933800
H       -3.70773700      -1.61056600      -0.17200800
H       -1.27202900      -1.95588300      -0.11238600
H       -6.52266300       2.16338500      -0.16179200
C       10.24815606       1.15628325       6.53108624
C       11.07645239       0.19985911       5.86091286
C       10.94589105       0.03716121       4.41673965
C        9.29561063       1.95731919       5.82334992
C        9.16509643       1.79484925       4.37922842
C        9.99333795       0.83832437       3.70912116
C        9.86664548       0.68003019       2.30516809
C        8.92591843       1.46683010       1.58396140
C       10.68067231      -0.26527957       1.62126622
C       10.54848202      -0.43115115       0.15307741
C        8.25996435       2.54311652       3.64173393
C        8.13710280       2.38297189       2.24716127
C       11.72112754      -0.87337082       3.71470149
C       11.59249184      -1.02791288       2.32005404
C        8.79324206       1.30149809       0.11582755
N        9.61225483       0.36183758      -0.51552534
O       11.23060396      -1.23976201      -0.50124416
O        7.99025281       1.95894144      -0.56991552
C       11.98176700      -0.54824337       6.59818176
C       12.10468497      -0.38811310       7.99271152
C       10.37473045       1.31462343       7.93494690
C       11.31566706       0.52785545       8.65581063
C        9.56058102       2.25974188       8.61896868
C        8.64877031       3.02209101       7.91989460
C        8.52016684       2.86768445       6.52527280
C       11.44837294       0.69313500      10.12401273
C        9.69270909       2.42554996      10.08718914
N       10.62918611       1.63258493      10.75547776
O       12.25151790       0.03583334      10.80969150
O        9.01046886       3.23391878      10.74167461
H        7.60570772       3.28832049       4.11928208
H        7.40788666       2.99221855       1.68473811
H       12.46418488      -1.50744209       4.22188454
H       12.22277492      -1.76073781       1.78618087
H        9.52304208       0.25017544      -1.50503553
H       12.63612128      -1.29327591       6.12048529
H       12.83405584      -0.99719624       8.55522397
H        8.01827396       3.75482303       8.45370693
H        7.77709353       3.50155868       6.01789880
H       10.71847177       1.74410796      11.74499477
