80
Dimer: struct; Energy: -4906.06228 eV
C       -1.29972200       1.48833600      -0.03228100
C       -0.45010500       2.63965400       0.01843500
C        0.99654200       2.45238200       0.05441800
C       -0.76903400       0.15867800      -0.04877100
C        0.67752200      -0.02870400      -0.01297900
C        1.52709100       1.12265000       0.03785500
C        2.93347700       0.94084900       0.07277000
C        3.48023700      -0.37253000       0.05696900
C        3.79427800       2.07240500       0.12351100
C        5.26507800       1.88272800       0.16006300
C        1.24802600      -1.29258500      -0.02698300
C        2.64560500      -1.46904700       0.00777700
C        1.86805800       3.52983300       0.10418700
C        3.26457400       3.34539700       0.13880400
C        4.95087500      -0.56291500       0.09346700
N        5.75909100       0.57580800       0.14293500
O        6.06925500       2.83065500       0.20492200
O        5.48910000      -1.68427500       0.08194900
C       -1.02041300       3.90352800       0.03216900
C       -2.41794600       4.08003500      -0.00262400
C       -2.70602800       1.67000700      -0.06716000
C       -3.25245200       2.98347100      -0.05156500
C       -3.56691500       0.53850500      -0.11766500
C       -3.03687800      -0.73433100      -0.13279200
C       -1.64041100      -0.91883000      -0.09829200
C       -4.72314700       3.17392200      -0.08803700
C       -5.03773600       0.72818300      -0.15412500
N       -5.53143900       2.03522700      -0.13722100
O       -5.26133100       4.29529300      -0.07673500
O       -5.84203300      -0.21964700      -0.19870900
H        0.62972700      -2.20233100      -0.06573200
H        3.07286500      -2.48716200      -0.00439800
H        1.49989900       4.56697900       0.11841200
H        3.93550500       4.22152900       0.17822500
H        6.75033500       0.44779700       0.16755800
H       -0.40199700       4.81321100       0.07071000
H       -2.84532000       5.09816700       0.00933800
H       -3.70773700      -1.61056600      -0.17200800
H       -1.27202900      -1.95588300      -0.11238600
H       -6.52266300       2.16338500      -0.16179200
C        7.30535997       7.08527585       2.72130535
C        6.97833680       8.35751762       3.29087628
C        5.59931248       8.62403868       3.68636531
C        6.31675530       6.06759229       2.52928177
C        4.93780987       6.33391672       2.92488022
C        4.61081915       7.60622198       3.49433962
C        3.27028820       7.86552661       3.87895648
C        2.27342110       6.86698954       3.69636338
C        2.92555562       9.12369706       4.44652899
C        1.52379376       9.39528738       4.84885774
C        3.93844084       5.38624723       2.76286106
C        2.60791991       5.64763020       3.14622402
C        5.22418359       9.83754959       4.24277104
C        3.89155515      10.09159002       4.62360801
C        0.87154143       7.13789242       4.09848241
N        0.57706798       8.38670346       4.65175145
O        1.15993016      10.47411069       5.34987885
O       -0.04410347       6.30666706       3.96459486
C        7.97758343       9.30513260       3.45320108
C        9.30808739       9.04378946       3.06989605
C        8.64576117       6.82589441       2.33664532
C        9.64240251       7.82452268       2.51955977
C        8.99054270       5.56783808       1.76884789
C        8.02427005       4.60024201       1.59177576
C        6.69168557       4.85416776       1.97268327
C       11.04435352       7.55367126       2.11741745
C       10.39230462       5.29627830       1.36642984
N       11.33884684       6.30497309       1.56387623
O       11.96001091       8.38483422       2.25151574
O       10.75625623       4.21761211       0.86514989
H        4.14893896       4.39673803       2.32927715
H        1.83207623       4.87458957       3.00575247
H        5.95391336      10.64506277       4.40657625
H        3.62062666      11.06708537       5.06442122
H       -0.36771468       8.56958093       4.92285903
H        7.76699921      10.29453959       3.88699250
H       10.08408443       9.81672948       3.21052574
H        8.29505121       3.62475679       1.15077279
H        5.96176432       4.04685105       1.80886156
H       12.28365770       6.12225025       1.29277104
