80
Dimer: struct; Energy: -4906.06228 eV
C       -1.29972200       1.48833600      -0.03228100
C       -0.45010500       2.63965400       0.01843500
C        0.99654200       2.45238200       0.05441800
C       -0.76903400       0.15867800      -0.04877100
C        0.67752200      -0.02870400      -0.01297900
C        1.52709100       1.12265000       0.03785500
C        2.93347700       0.94084900       0.07277000
C        3.48023700      -0.37253000       0.05696900
C        3.79427800       2.07240500       0.12351100
C        5.26507800       1.88272800       0.16006300
C        1.24802600      -1.29258500      -0.02698300
C        2.64560500      -1.46904700       0.00777700
C        1.86805800       3.52983300       0.10418700
C        3.26457400       3.34539700       0.13880400
C        4.95087500      -0.56291500       0.09346700
N        5.75909100       0.57580800       0.14293500
O        6.06925500       2.83065500       0.20492200
O        5.48910000      -1.68427500       0.08194900
C       -1.02041300       3.90352800       0.03216900
C       -2.41794600       4.08003500      -0.00262400
C       -2.70602800       1.67000700      -0.06716000
C       -3.25245200       2.98347100      -0.05156500
C       -3.56691500       0.53850500      -0.11766500
C       -3.03687800      -0.73433100      -0.13279200
C       -1.64041100      -0.91883000      -0.09829200
C       -4.72314700       3.17392200      -0.08803700
C       -5.03773600       0.72818300      -0.15412500
N       -5.53143900       2.03522700      -0.13722100
O       -5.26133100       4.29529300      -0.07673500
O       -5.84203300      -0.21964700      -0.19870900
H        0.62972700      -2.20233100      -0.06573200
H        3.07286500      -2.48716200      -0.00439800
H        1.49989900       4.56697900       0.11841200
H        3.93550500       4.22152900       0.17822500
H        6.75033500       0.44779700       0.16755800
H       -0.40199700       4.81321100       0.07071000
H       -2.84532000       5.09816700       0.00933800
H       -3.70773700      -1.61056600      -0.17200800
H       -1.27202900      -1.95588300      -0.11238600
H       -6.52266300       2.16338500      -0.16179200
C        9.91154372       1.67800707       2.68669796
C        9.45188277       0.32804600       2.55913931
C        9.19311339      -0.44999706       3.76613580
C       10.12411097       2.28540291       3.96567314
C        9.86521387       1.50756116       5.17267433
C        9.40566498       0.15756265       5.04505597
C        9.15396620      -0.59898463       6.21828919
C        9.35904776      -0.01318117       7.49849871
C        8.69693713      -1.94205685       6.11220694
C        8.43362584      -2.73358362       7.33887666
C       10.05319885       2.04338266       6.43783166
C        9.80201897       1.28861138       7.60093231
C        8.74702591      -1.76150651       3.70395323
C        8.49808381      -2.50998920       4.87154622
C        9.09591255      -0.80409299       8.72551665
N        8.64822668      -2.11914782       8.57532206
O        8.03331339      -3.91100285       7.31218459
O        9.25596510      -0.34887461       9.87200105
C        9.26360096      -0.20779595       1.29413311
C        9.51472716       0.54692709       0.13103702
C       10.16329178       2.43458293       1.51361086
C        9.95791563       1.84858513       0.23359630
C       10.62054738       3.77758667       1.61959311
C       10.81943561       4.34514449       2.86039975
C       10.57041250       3.59677787       4.02799776
C       10.22107108       2.63947684      -0.99350806
C       10.88394936       4.56909300       0.39290708
N       10.66903289       3.95445810      -0.84338870
O       10.06080404       2.18430223      -2.13996924
O       11.28452140       5.74642086       0.41944523
H       10.40510347       3.07675358       6.57833287
H        9.96025595       1.74057476       8.59589344
H        8.57166556      -2.26413055       2.74060851
H        8.14329446      -3.55268875       4.79273079
H        8.47080531      -2.65246759       9.40215303
H        8.91149103      -1.24112127       1.15376109
H        9.35631357       0.09509823      -0.86402088
H       11.17442688       5.38779855       2.93933754
H       10.74581780       4.09915207       4.99144781
H       10.84645904       4.48764412      -1.67030215
