80
Dimer: struct; Energy: -4906.06228 eV
C       -1.29972200       1.48833600      -0.03228100
C       -0.45010500       2.63965400       0.01843500
C        0.99654200       2.45238200       0.05441800
C       -0.76903400       0.15867800      -0.04877100
C        0.67752200      -0.02870400      -0.01297900
C        1.52709100       1.12265000       0.03785500
C        2.93347700       0.94084900       0.07277000
C        3.48023700      -0.37253000       0.05696900
C        3.79427800       2.07240500       0.12351100
C        5.26507800       1.88272800       0.16006300
C        1.24802600      -1.29258500      -0.02698300
C        2.64560500      -1.46904700       0.00777700
C        1.86805800       3.52983300       0.10418700
C        3.26457400       3.34539700       0.13880400
C        4.95087500      -0.56291500       0.09346700
N        5.75909100       0.57580800       0.14293500
O        6.06925500       2.83065500       0.20492200
O        5.48910000      -1.68427500       0.08194900
C       -1.02041300       3.90352800       0.03216900
C       -2.41794600       4.08003500      -0.00262400
C       -2.70602800       1.67000700      -0.06716000
C       -3.25245200       2.98347100      -0.05156500
C       -3.56691500       0.53850500      -0.11766500
C       -3.03687800      -0.73433100      -0.13279200
C       -1.64041100      -0.91883000      -0.09829200
C       -4.72314700       3.17392200      -0.08803700
C       -5.03773600       0.72818300      -0.15412500
N       -5.53143900       2.03522700      -0.13722100
O       -5.26133100       4.29529300      -0.07673500
O       -5.84203300      -0.21964700      -0.19870900
H        0.62972700      -2.20233100      -0.06573200
H        3.07286500      -2.48716200      -0.00439800
H        1.49989900       4.56697900       0.11841200
H        3.93550500       4.22152900       0.17822500
H        6.75033500       0.44779700       0.16755800
H       -0.40199700       4.81321100       0.07071000
H       -2.84532000       5.09816700       0.00933800
H       -3.70773700      -1.61056600      -0.17200800
H       -1.27202900      -1.95588300      -0.11238600
H       -6.52266300       2.16338500      -0.16179200
C       11.92398777       0.42135413       1.49922973
C       11.58846113      -0.56218156       0.51432683
C       10.48664047      -0.29792359      -0.40508171
C       11.20838215       1.65676976       1.60669548
C       10.10672189       1.92120366       0.68727353
C        9.77116192       0.93757965      -0.29753657
C        8.70011691       1.19428152      -1.19149350
C        7.97689770       2.41612039      -1.10080554
C        8.35143308       0.22924493      -2.17693551
C        7.23142660       0.49728501      -3.11197884
C        9.37842225       3.09992866       0.74430970
C        8.31514466       3.35124618      -0.14555233
C       10.11677437      -1.21340697      -1.37873822
C        9.05225459      -0.95499302      -2.26501797
C        6.85685595       2.68480362      -2.03550897
N        6.54829440       1.70982479      -2.98764147
O        6.87869459      -0.30569492      -3.99406837
O        6.18728649       3.73271378      -2.00673218
C       12.31679551      -1.74076499       0.45699046
C       13.38007369      -1.99210441       1.34678356
C       12.99491829       0.16475853       2.39320063
C       13.71805504      -1.05703837       2.30212026
C       13.34352361       1.12963532       3.37882787
C       12.64239789       2.31368633       3.46672249
C       11.57797272       2.57220466       2.58042822
C       14.83813770      -1.32579651       3.23685523
C       14.46348533       0.86155182       4.31394203
N       15.14657552      -0.35097483       4.18920502
O       15.50782170      -2.37361729       3.20791306
O       14.81614887       1.66431359       5.19624871
H        9.60494086       3.88065612       1.48632512
H        7.75203396       4.29863497      -0.07759417
H       10.64149249      -2.17406839      -1.49369804
H        8.77903460      -1.70190616      -3.03103448
H        5.79342779       1.89063428      -3.61775424
H       12.09031273      -2.52133464      -0.28521133
H       13.94340882      -2.93942262       1.27876791
H       12.91540599       3.06060591       4.23285250
H       11.05303494       3.53274231       2.69527864
H       15.90143257      -0.53193704       4.81928179
