80
Dimer: struct; Energy: -4906.06228 eV
C       -1.29972200       1.48833600      -0.03228100
C       -0.45010500       2.63965400       0.01843500
C        0.99654200       2.45238200       0.05441800
C       -0.76903400       0.15867800      -0.04877100
C        0.67752200      -0.02870400      -0.01297900
C        1.52709100       1.12265000       0.03785500
C        2.93347700       0.94084900       0.07277000
C        3.48023700      -0.37253000       0.05696900
C        3.79427800       2.07240500       0.12351100
C        5.26507800       1.88272800       0.16006300
C        1.24802600      -1.29258500      -0.02698300
C        2.64560500      -1.46904700       0.00777700
C        1.86805800       3.52983300       0.10418700
C        3.26457400       3.34539700       0.13880400
C        4.95087500      -0.56291500       0.09346700
N        5.75909100       0.57580800       0.14293500
O        6.06925500       2.83065500       0.20492200
O        5.48910000      -1.68427500       0.08194900
C       -1.02041300       3.90352800       0.03216900
C       -2.41794600       4.08003500      -0.00262400
C       -2.70602800       1.67000700      -0.06716000
C       -3.25245200       2.98347100      -0.05156500
C       -3.56691500       0.53850500      -0.11766500
C       -3.03687800      -0.73433100      -0.13279200
C       -1.64041100      -0.91883000      -0.09829200
C       -4.72314700       3.17392200      -0.08803700
C       -5.03773600       0.72818300      -0.15412500
N       -5.53143900       2.03522700      -0.13722100
O       -5.26133100       4.29529300      -0.07673500
O       -5.84203300      -0.21964700      -0.19870900
H        0.62972700      -2.20233100      -0.06573200
H        3.07286500      -2.48716200      -0.00439800
H        1.49989900       4.56697900       0.11841200
H        3.93550500       4.22152900       0.17822500
H        6.75033500       0.44779700       0.16755800
H       -0.40199700       4.81321100       0.07071000
H       -2.84532000       5.09816700       0.00933800
H       -3.70773700      -1.61056600      -0.17200800
H       -1.27202900      -1.95588300      -0.11238600
H       -6.52266300       2.16338500      -0.16179200
C        2.34064685       6.38984982       9.38308414
C        1.60861580       6.40269477       8.15266964
C        2.15389126       5.70029726       6.99574894
C        3.59260672       5.70683971       9.50951895
C        4.13786228       5.00429171       8.35278215
C        3.40584387       5.01726793       7.12235609
C        3.93569376       4.33444588       5.99754260
C        5.17832832       3.64970704       6.10314858
C        3.22324001       4.33583004       4.76612889
C        3.77699440       3.62190854       3.58959235
C        5.34557483       4.32573168       8.41644371
C        5.86858596       3.64857334       7.29684999
C        1.48945645       5.67869855       5.77879470
C        2.01886878       4.99938166       4.66357137
C        5.73261439       2.93559119       4.92707027
N        5.00005243       2.96265044       3.73754472
O        3.20251234       3.58639066       2.48687415
O        6.81276551       2.31939501       4.95610261
C        0.40083265       7.08093835       8.08892912
C       -0.12222023       7.75806233       9.20847481
C        1.81094421       7.07262310      10.50787444
C        0.56822712       7.75706252      10.40201138
C        2.52344102       7.07149110      11.73926430
C        3.72784344       6.40797141      11.84142083
C        4.25724161       5.72856060      10.72630256
C        0.01388288       8.47124733      11.57810155
C        1.96972357       7.78549870      12.91578953
N        0.74653495       8.44446699      12.76759097
O       -1.06636838       9.08724947      11.54909706
O        2.54422194       7.82133045      14.01848206
H        5.93820323       4.29201243       9.34331345
H        6.83276990       3.11624388       7.37579403
H        0.52526767       6.19129273       5.64094540
H        1.46843370       4.99850090       3.70632002
H        5.37340013       2.48143791       2.94469936
H       -0.19181014       7.11441130       7.16205210
H       -1.08654762       8.29027419       9.12968647
H        4.27848018       6.40895535      12.79859150
H        5.22147028       5.21600055      10.86388207
H        0.37309251       8.92575992      13.56034004
