80
Dimer: struct; Energy: -4906.06228 eV
C       -1.29972200       1.48833600      -0.03228100
C       -0.45010500       2.63965400       0.01843500
C        0.99654200       2.45238200       0.05441800
C       -0.76903400       0.15867800      -0.04877100
C        0.67752200      -0.02870400      -0.01297900
C        1.52709100       1.12265000       0.03785500
C        2.93347700       0.94084900       0.07277000
C        3.48023700      -0.37253000       0.05696900
C        3.79427800       2.07240500       0.12351100
C        5.26507800       1.88272800       0.16006300
C        1.24802600      -1.29258500      -0.02698300
C        2.64560500      -1.46904700       0.00777700
C        1.86805800       3.52983300       0.10418700
C        3.26457400       3.34539700       0.13880400
C        4.95087500      -0.56291500       0.09346700
N        5.75909100       0.57580800       0.14293500
O        6.06925500       2.83065500       0.20492200
O        5.48910000      -1.68427500       0.08194900
C       -1.02041300       3.90352800       0.03216900
C       -2.41794600       4.08003500      -0.00262400
C       -2.70602800       1.67000700      -0.06716000
C       -3.25245200       2.98347100      -0.05156500
C       -3.56691500       0.53850500      -0.11766500
C       -3.03687800      -0.73433100      -0.13279200
C       -1.64041100      -0.91883000      -0.09829200
C       -4.72314700       3.17392200      -0.08803700
C       -5.03773600       0.72818300      -0.15412500
N       -5.53143900       2.03522700      -0.13722100
O       -5.26133100       4.29529300      -0.07673500
O       -5.84203300      -0.21964700      -0.19870900
H        0.62972700      -2.20233100      -0.06573200
H        3.07286500      -2.48716200      -0.00439800
H        1.49989900       4.56697900       0.11841200
H        3.93550500       4.22152900       0.17822500
H        6.75033500       0.44779700       0.16755800
H       -0.40199700       4.81321100       0.07071000
H       -2.84532000       5.09816700       0.00933800
H       -3.70773700      -1.61056600      -0.17200800
H       -1.27202900      -1.95588300      -0.11238600
H       -6.52266300       2.16338500      -0.16179200
C        8.19163495       3.35939410       6.30801872
C        9.16596659       4.06427601       7.08504744
C        9.84683722       3.36664212       8.17080767
C        7.86718570       1.98914061       6.56692049
C        8.54808632       1.29138725       7.65247654
C        9.52232716       1.99635416       8.42955057
C       10.18441692       1.31834301       9.48507426
C        9.87599140      -0.04347928       9.75797407
C       11.15554951       2.00170031      10.26858960
C       11.84815014       1.29304196      11.37252519
C        8.27479798      -0.03543620       7.94898816
C        8.93467883      -0.70550002       8.99834315
C       10.79900410       3.99824520       8.95653887
C       11.45463939       3.32154794      10.00424832
C       10.56820646      -0.75271355      10.86168588
N       11.51473522      -0.04367170      11.60579152
O       12.70565714       1.83495834      12.09244667
O       10.34270294      -1.94170545      11.14928542
C        9.43954554       5.39093861       6.78850364
C        8.77973394       6.06101469       5.73916553
C        7.52950293       4.03727199       5.25256610
C        7.83829514       5.39898061       4.97978950
C        6.55818574       3.35406516       4.46914713
C        6.25923765       2.03427879       4.73386113
C        6.91489707       1.35750964       5.78145097
C        7.14606198       6.10830198       3.87605855
C        5.86551056       4.06275988       3.36525656
N        6.19930870       5.39939844       3.13208588
O        7.37174226       7.29722332       3.58834840
O        5.00779365       3.52105615       2.64543583
H        7.53310533      -0.61197880       7.37546958
H        8.69741664      -1.76243163       9.21249198
H       11.07626619       5.05024053       8.78966531
H       12.20890315       3.84902311      10.61430228
H       11.98143621      -0.52143095      12.34976334
H       10.18141625       5.96731959       7.36196658
H        9.01708858       7.11794021       5.52479293
H        5.50482335       1.50674772       4.12398614
H        6.63771084       0.30555123       5.94858611
H        5.73265214       5.87729462       2.38817721
