80
Dimer: struct; Energy: -4906.06228 eV
C       -1.29972200       1.48833600      -0.03228100
C       -0.45010500       2.63965400       0.01843500
C        0.99654200       2.45238200       0.05441800
C       -0.76903400       0.15867800      -0.04877100
C        0.67752200      -0.02870400      -0.01297900
C        1.52709100       1.12265000       0.03785500
C        2.93347700       0.94084900       0.07277000
C        3.48023700      -0.37253000       0.05696900
C        3.79427800       2.07240500       0.12351100
C        5.26507800       1.88272800       0.16006300
C        1.24802600      -1.29258500      -0.02698300
C        2.64560500      -1.46904700       0.00777700
C        1.86805800       3.52983300       0.10418700
C        3.26457400       3.34539700       0.13880400
C        4.95087500      -0.56291500       0.09346700
N        5.75909100       0.57580800       0.14293500
O        6.06925500       2.83065500       0.20492200
O        5.48910000      -1.68427500       0.08194900
C       -1.02041300       3.90352800       0.03216900
C       -2.41794600       4.08003500      -0.00262400
C       -2.70602800       1.67000700      -0.06716000
C       -3.25245200       2.98347100      -0.05156500
C       -3.56691500       0.53850500      -0.11766500
C       -3.03687800      -0.73433100      -0.13279200
C       -1.64041100      -0.91883000      -0.09829200
C       -4.72314700       3.17392200      -0.08803700
C       -5.03773600       0.72818300      -0.15412500
N       -5.53143900       2.03522700      -0.13722100
O       -5.26133100       4.29529300      -0.07673500
O       -5.84203300      -0.21964700      -0.19870900
H        0.62972700      -2.20233100      -0.06573200
H        3.07286500      -2.48716200      -0.00439800
H        1.49989900       4.56697900       0.11841200
H        3.93550500       4.22152900       0.17822500
H        6.75033500       0.44779700       0.16755800
H       -0.40199700       4.81321100       0.07071000
H       -2.84532000       5.09816700       0.00933800
H       -3.70773700      -1.61056600      -0.17200800
H       -1.27202900      -1.95588300      -0.11238600
H       -6.52266300       2.16338500      -0.16179200
C        3.23227922       8.14581627       4.40681939
C        4.05058571       8.62866485       5.47788710
C        5.26956261       7.90386278       5.82126793
C        3.57713261       6.97171593       3.66354515
C        4.79611402       6.24697495       4.00669552
C        5.61432443       6.72980323       5.07785200
C        6.79943315       6.02539980       5.41180613
C        7.15938898       4.85655006       4.68490679
C        7.62559025       6.48935516       6.47302328
C        8.86500146       5.75299877       6.82260185
C        5.18035822       5.10411151       3.32165125
C        6.35840372       4.40716420       3.65638604
C        6.10046945       8.32447774       6.84868927
C        7.27692459       7.62217925       7.17763004
C        8.39862060       4.11976800       5.03392234
N        9.18048462       4.61031400       6.08292355
O        9.62794010       6.10777188       7.73875644
O        8.76687565       3.09270154       4.43660352
C        3.66664305       9.77159620       6.16280556
C        2.48865775      10.46857679       5.82809306
C        2.04721015       8.85007300       4.07282653
C        1.68765438      10.01896766       4.79974811
C        1.22086788       8.38605993       3.01177786
C        1.56975531       7.25312743       2.30749023
C        2.74621947       6.55086693       2.63629486
C        0.44836673      10.75580604       4.45077694
C       -0.01860651       9.12237421       2.66225533
N       -0.33369972      10.26515268       3.40196205
O        0.08025407      11.78298442       5.04797064
O       -0.78177492       8.76756659       1.74631393
H        4.57908472       4.70102892       2.49253875
H        6.64036402       3.49970453       3.09400463
H        5.87049763       9.22157103       7.44345967
H        7.92037533       7.97959208       8.00075635
H       10.01577335       4.11392282       6.31839396
H        4.26811403      10.17470219       6.99177186
H        2.20670458      11.37621192       6.39030768
H        0.92625700       6.89549699       1.48445448
H        2.97632902       5.65368162       2.04174379
H       -1.16898297      10.76161494       3.16663174
