80
Dimer: struct; Energy: -4906.06228 eV
C       -1.29972200       1.48833600      -0.03228100
C       -0.45010500       2.63965400       0.01843500
C        0.99654200       2.45238200       0.05441800
C       -0.76903400       0.15867800      -0.04877100
C        0.67752200      -0.02870400      -0.01297900
C        1.52709100       1.12265000       0.03785500
C        2.93347700       0.94084900       0.07277000
C        3.48023700      -0.37253000       0.05696900
C        3.79427800       2.07240500       0.12351100
C        5.26507800       1.88272800       0.16006300
C        1.24802600      -1.29258500      -0.02698300
C        2.64560500      -1.46904700       0.00777700
C        1.86805800       3.52983300       0.10418700
C        3.26457400       3.34539700       0.13880400
C        4.95087500      -0.56291500       0.09346700
N        5.75909100       0.57580800       0.14293500
O        6.06925500       2.83065500       0.20492200
O        5.48910000      -1.68427500       0.08194900
C       -1.02041300       3.90352800       0.03216900
C       -2.41794600       4.08003500      -0.00262400
C       -2.70602800       1.67000700      -0.06716000
C       -3.25245200       2.98347100      -0.05156500
C       -3.56691500       0.53850500      -0.11766500
C       -3.03687800      -0.73433100      -0.13279200
C       -1.64041100      -0.91883000      -0.09829200
C       -4.72314700       3.17392200      -0.08803700
C       -5.03773600       0.72818300      -0.15412500
N       -5.53143900       2.03522700      -0.13722100
O       -5.26133100       4.29529300      -0.07673500
O       -5.84203300      -0.21964700      -0.19870900
H        0.62972700      -2.20233100      -0.06573200
H        3.07286500      -2.48716200      -0.00439800
H        1.49989900       4.56697900       0.11841200
H        3.93550500       4.22152900       0.17822500
H        6.75033500       0.44779700       0.16755800
H       -0.40199700       4.81321100       0.07071000
H       -2.84532000       5.09816700       0.00933800
H       -3.70773700      -1.61056600      -0.17200800
H       -1.27202900      -1.95588300      -0.11238600
H       -6.52266300       2.16338500      -0.16179200
C        8.84956930       6.44934888       6.00506566
C        8.96111953       7.78769035       5.50872608
C        8.09827370       8.21107049       4.41081923
C        7.91483237       5.51529981       5.45396560
C        7.05185364       5.93859829       4.35623911
C        7.16352837       7.27691945       3.85985938
C        6.32477322       7.68876016       2.79258750
C        5.38935325       6.77531449       2.23154645
C        6.42079600       9.01450479       2.28548515
C        5.54386459       9.44559025       1.16936567
C        6.12802447       5.07752760       3.78338395
C        5.29655694       5.49042772       2.72331348
C        8.16206144       9.49440645       3.88938114
C        7.32730210       9.89996764       2.82911283
C        4.51213858       7.20573162       1.11548633
N        4.63971998       8.51639020       0.64831684
O        5.58005450      10.58978451       0.68275663
O        3.67540884       6.45472166       0.58338254
C        9.88465199       8.64890858       6.08162072
C       10.71609282       8.23607548       7.14168616
C        9.68824334       6.03741829       7.07223786
C       10.62337681       6.95113198       7.63318594
C        9.59245550       4.71162151       7.57925025
C        8.68595334       3.82638683       7.03528985
C        7.85111095       4.23190458       5.97512772
C       11.50067207       6.52074179       8.74927862
C       10.46946207       4.28050344       8.69532291
N       11.37334069       5.20999960       9.21631499
O       12.33723625       7.27183651       9.28150015
O       10.43357301       3.13626992       9.18184602
H        6.01149899       4.04150028       4.13623253
H        4.56959420       4.78372467       2.28587381
H        8.86682183      10.24147000       4.28513873
H        7.39929173      10.92824656       2.43317133
H        4.04862080       8.80676751      -0.10390689
H       10.00094035       9.68498543       5.72881950
H       11.44298048       8.94280385       7.57935469
H        8.61401572       2.79799261       7.43102686
H        7.14636138       3.48497849       5.57913237
H       11.96453418       4.91974442       9.96850872
