80
Dimer: struct; Energy: -4906.06228 eV
C       -1.29972200       1.48833600      -0.03228100
C       -0.45010500       2.63965400       0.01843500
C        0.99654200       2.45238200       0.05441800
C       -0.76903400       0.15867800      -0.04877100
C        0.67752200      -0.02870400      -0.01297900
C        1.52709100       1.12265000       0.03785500
C        2.93347700       0.94084900       0.07277000
C        3.48023700      -0.37253000       0.05696900
C        3.79427800       2.07240500       0.12351100
C        5.26507800       1.88272800       0.16006300
C        1.24802600      -1.29258500      -0.02698300
C        2.64560500      -1.46904700       0.00777700
C        1.86805800       3.52983300       0.10418700
C        3.26457400       3.34539700       0.13880400
C        4.95087500      -0.56291500       0.09346700
N        5.75909100       0.57580800       0.14293500
O        6.06925500       2.83065500       0.20492200
O        5.48910000      -1.68427500       0.08194900
C       -1.02041300       3.90352800       0.03216900
C       -2.41794600       4.08003500      -0.00262400
C       -2.70602800       1.67000700      -0.06716000
C       -3.25245200       2.98347100      -0.05156500
C       -3.56691500       0.53850500      -0.11766500
C       -3.03687800      -0.73433100      -0.13279200
C       -1.64041100      -0.91883000      -0.09829200
C       -4.72314700       3.17392200      -0.08803700
C       -5.03773600       0.72818300      -0.15412500
N       -5.53143900       2.03522700      -0.13722100
O       -5.26133100       4.29529300      -0.07673500
O       -5.84203300      -0.21964700      -0.19870900
H        0.62972700      -2.20233100      -0.06573200
H        3.07286500      -2.48716200      -0.00439800
H        1.49989900       4.56697900       0.11841200
H        3.93550500       4.22152900       0.17822500
H        6.75033500       0.44779700       0.16755800
H       -0.40199700       4.81321100       0.07071000
H       -2.84532000       5.09816700       0.00933800
H       -3.70773700      -1.61056600      -0.17200800
H       -1.27202900      -1.95588300      -0.11238600
H       -6.52266300       2.16338500      -0.16179200
C        4.65805010       5.05546865       3.97997857
C        4.27613606       6.43486367       4.01692924
C        4.91267860       7.37179953       3.09708256
C        5.64702780       4.57024372       3.06544484
C        6.28347138       5.50700059       2.14547555
C        5.90160245       6.88640960       2.18254989
C        6.52022284       7.79742470       1.28837288
C        7.50517131       7.33464741       0.37192634
C        6.15432866       9.17206206       1.30994994
C        6.80103185      10.12510478       0.37504319
C        7.24734833       5.09415422       1.23797061
C        7.85955318       6.00221817       0.35129185
C        4.58308557       8.71872141       3.08772120
C        5.19973533       9.62078050       2.19805589
C        8.15221669       8.28709893      -0.56323303
N        7.76298773       9.62792126      -0.50803752
O        6.52464631      11.33754102       0.34524433
O        9.01902887       7.94429718      -1.38687778
C        3.31213902       6.84778980       4.92413321
C        2.69989881       5.93978153       5.81078233
C        4.03956272       4.14443463       4.87407467
C        3.05453088       4.60746723       5.79022049
C        4.40556161       2.76982079       4.85273105
C        5.36029074       2.32148185       3.96460717
C        5.97687951       3.22343905       3.07486468
C        2.40744377       3.65502293       6.72546041
C        3.75891588       1.81678327       5.78771247
N        2.79683094       2.31422475       6.67051310
O        1.54048562       3.99781516       7.54894066
O        4.03539567       0.60438228       5.81781017
H        7.56824604       4.04302591       1.17808017
H        8.62429658       5.64597924      -0.36111173
H        3.82832745       9.13076740       3.77472449
H        4.91804890      10.68837691       2.21221059
H        8.19893454      10.27010454      -1.13820320
H        2.99117264       7.89891728       4.98378658
H        1.93495477       6.29590286       6.52311835
H        5.64221072       1.25391469       3.95050166
H        6.73174970       2.81164398       2.38785764
H        2.36083734       1.67216309       7.30076672
