80
Dimer: struct; Energy: -4906.06228 eV
C       -1.29972200       1.48833600      -0.03228100
C       -0.45010500       2.63965400       0.01843500
C        0.99654200       2.45238200       0.05441800
C       -0.76903400       0.15867800      -0.04877100
C        0.67752200      -0.02870400      -0.01297900
C        1.52709100       1.12265000       0.03785500
C        2.93347700       0.94084900       0.07277000
C        3.48023700      -0.37253000       0.05696900
C        3.79427800       2.07240500       0.12351100
C        5.26507800       1.88272800       0.16006300
C        1.24802600      -1.29258500      -0.02698300
C        2.64560500      -1.46904700       0.00777700
C        1.86805800       3.52983300       0.10418700
C        3.26457400       3.34539700       0.13880400
C        4.95087500      -0.56291500       0.09346700
N        5.75909100       0.57580800       0.14293500
O        6.06925500       2.83065500       0.20492200
O        5.48910000      -1.68427500       0.08194900
C       -1.02041300       3.90352800       0.03216900
C       -2.41794600       4.08003500      -0.00262400
C       -2.70602800       1.67000700      -0.06716000
C       -3.25245200       2.98347100      -0.05156500
C       -3.56691500       0.53850500      -0.11766500
C       -3.03687800      -0.73433100      -0.13279200
C       -1.64041100      -0.91883000      -0.09829200
C       -4.72314700       3.17392200      -0.08803700
C       -5.03773600       0.72818300      -0.15412500
N       -5.53143900       2.03522700      -0.13722100
O       -5.26133100       4.29529300      -0.07673500
O       -5.84203300      -0.21964700      -0.19870900
H        0.62972700      -2.20233100      -0.06573200
H        3.07286500      -2.48716200      -0.00439800
H        1.49989900       4.56697900       0.11841200
H        3.93550500       4.22152900       0.17822500
H        6.75033500       0.44779700       0.16755800
H       -0.40199700       4.81321100       0.07071000
H       -2.84532000       5.09816700       0.00933800
H       -3.70773700      -1.61056600      -0.17200800
H       -1.27202900      -1.95588300      -0.11238600
H       -6.52266300       2.16338500      -0.16179200
C       10.67568968       3.93354969       2.60874493
C       10.84221284       5.14618086       1.86594618
C       10.47860075       5.16787978       0.45298174
C       10.16222610       2.74197825       2.00343119
C        9.79842730       2.76360652       0.59059716
C        9.96508171       3.97623562      -0.15218449
C        9.61159966       3.99759534      -1.52578794
C        9.09949727       2.82376598      -2.14549459
C        9.76995709       5.19292765      -2.28082145
C        9.40044636       5.21568757      -3.71731365
C        9.29617375       1.64015186      -0.04866578
C        8.94613857       1.66538256      -1.41336829
C       10.61837741       6.31322235      -0.31615455
C       10.26623366       6.33070202      -1.68039835
C        8.72977701       2.84583823      -3.58187004
N        8.90148467       4.04071737      -4.28552520
O        9.51549866       6.22850833      -4.43022013
O        8.27736499       1.85349456      -4.18007105
C       11.34416661       6.26972490       2.50509292
C       11.69417271       6.24455221       3.86976351
C       11.02914982       3.91206813       3.98225210
C       11.54100430       5.08607922       4.60169784
C       10.87104747       2.71671592       4.73730885
C       10.37488956       1.57909763       4.13653313
C       10.02263105       1.59653918       2.77236307
C       11.91078077       5.06405536       6.03812601
C       11.24064906       2.69393086       6.17379658
N       11.73936320       3.86912085       6.74177996
O       12.36298520       6.05646961       6.63634651
O       11.12590825       1.68111665       6.88675172
H        9.15318220       0.68932507       0.48697847
H        8.54841716       0.75592238      -1.89705967
H       11.00924136       7.24896307       0.11166539
H       10.38791237       7.25682471      -2.26929626
H        8.65239307       4.05588844      -5.25365793
H       11.48691920       7.22056046       1.96938745
H       12.09172793       7.15406546       4.35362287
H       10.25335557       0.65283544       4.72529906
H        9.63186180       0.66088703       2.34430080
H       11.98853949       3.85408037       7.70989058
