80
Dimer: struct; Energy: -4906.06228 eV
C       -1.29972200       1.48833600      -0.03228100
C       -0.45010500       2.63965400       0.01843500
C        0.99654200       2.45238200       0.05441800
C       -0.76903400       0.15867800      -0.04877100
C        0.67752200      -0.02870400      -0.01297900
C        1.52709100       1.12265000       0.03785500
C        2.93347700       0.94084900       0.07277000
C        3.48023700      -0.37253000       0.05696900
C        3.79427800       2.07240500       0.12351100
C        5.26507800       1.88272800       0.16006300
C        1.24802600      -1.29258500      -0.02698300
C        2.64560500      -1.46904700       0.00777700
C        1.86805800       3.52983300       0.10418700
C        3.26457400       3.34539700       0.13880400
C        4.95087500      -0.56291500       0.09346700
N        5.75909100       0.57580800       0.14293500
O        6.06925500       2.83065500       0.20492200
O        5.48910000      -1.68427500       0.08194900
C       -1.02041300       3.90352800       0.03216900
C       -2.41794600       4.08003500      -0.00262400
C       -2.70602800       1.67000700      -0.06716000
C       -3.25245200       2.98347100      -0.05156500
C       -3.56691500       0.53850500      -0.11766500
C       -3.03687800      -0.73433100      -0.13279200
C       -1.64041100      -0.91883000      -0.09829200
C       -4.72314700       3.17392200      -0.08803700
C       -5.03773600       0.72818300      -0.15412500
N       -5.53143900       2.03522700      -0.13722100
O       -5.26133100       4.29529300      -0.07673500
O       -5.84203300      -0.21964700      -0.19870900
H        0.62972700      -2.20233100      -0.06573200
H        3.07286500      -2.48716200      -0.00439800
H        1.49989900       4.56697900       0.11841200
H        3.93550500       4.22152900       0.17822500
H        6.75033500       0.44779700       0.16755800
H       -0.40199700       4.81321100       0.07071000
H       -2.84532000       5.09816700       0.00933800
H       -3.70773700      -1.61056600      -0.17200800
H       -1.27202900      -1.95588300      -0.11238600
H       -6.52266300       2.16338500      -0.16179200
C        5.07599847       5.06871135       9.20545606
C        4.49074606       3.77351893       9.03250946
C        3.83771741       3.45361484       7.76745291
C        5.03821609       6.05833229       8.17147591
C        4.38541221       5.73849696       6.90637916
C        3.80007202       4.44332616       6.73352926
C        3.16524027       4.13207492       5.50377174
C        3.11739139       5.10197939       4.46398504
C        2.57771261       2.85054288       5.31282968
C        1.91370869       2.52464890       4.02696111
C        4.31846049       6.65698913       5.86957845
C        3.68696314       6.34398836       4.64940806
C        3.25378623       2.21599437       7.54331526
C        2.62400097       1.91037305       6.32043421
C        2.45360623       4.77675089       3.17791725
N        1.88973491       3.50653973       3.03313127
O        1.38227823       1.42328526       3.79923677
O        2.37906055       5.58094252       2.23188034
C        4.55784957       2.85488098      10.06905119
C        5.18934922       3.16781576      11.28919207
C        5.71078072       5.38006147      10.43510238
C        5.75864940       4.40990175      11.47457761
C        6.29813086       6.66164924      10.62622161
C        6.25152513       7.60161862       9.61846916
C        5.62187393       7.29603322       8.39555987
C        6.42242791       4.73509955      12.76073081
C        6.96206276       6.98757840      11.91214000
N        6.98607845       6.00540107      12.90569089
O        6.49714452       3.93081637      13.70666352
O        7.49329048       8.08898360      12.14010225
H        4.75600550       7.66261286       5.96289616
H        3.64827653       7.09469495       3.84058147
H        3.26156727       1.42877988       8.31250186
H        2.16699138       0.91663647       6.16897611
H        1.44226493       3.28705827       2.16643854
H        4.12044472       1.84920761       9.97553647
H        5.22827264       2.41706650      12.09804614
H        6.70833575       8.59548591       9.76989350
H        5.61386443       8.08312984       7.62627604
H        7.43347308       6.22476183      13.77245045
