80
Dimer: struct; Energy: -4906.06228 eV
C       -1.29972200       1.48833600      -0.03228100
C       -0.45010500       2.63965400       0.01843500
C        0.99654200       2.45238200       0.05441800
C       -0.76903400       0.15867800      -0.04877100
C        0.67752200      -0.02870400      -0.01297900
C        1.52709100       1.12265000       0.03785500
C        2.93347700       0.94084900       0.07277000
C        3.48023700      -0.37253000       0.05696900
C        3.79427800       2.07240500       0.12351100
C        5.26507800       1.88272800       0.16006300
C        1.24802600      -1.29258500      -0.02698300
C        2.64560500      -1.46904700       0.00777700
C        1.86805800       3.52983300       0.10418700
C        3.26457400       3.34539700       0.13880400
C        4.95087500      -0.56291500       0.09346700
N        5.75909100       0.57580800       0.14293500
O        6.06925500       2.83065500       0.20492200
O        5.48910000      -1.68427500       0.08194900
C       -1.02041300       3.90352800       0.03216900
C       -2.41794600       4.08003500      -0.00262400
C       -2.70602800       1.67000700      -0.06716000
C       -3.25245200       2.98347100      -0.05156500
C       -3.56691500       0.53850500      -0.11766500
C       -3.03687800      -0.73433100      -0.13279200
C       -1.64041100      -0.91883000      -0.09829200
C       -4.72314700       3.17392200      -0.08803700
C       -5.03773600       0.72818300      -0.15412500
N       -5.53143900       2.03522700      -0.13722100
O       -5.26133100       4.29529300      -0.07673500
O       -5.84203300      -0.21964700      -0.19870900
H        0.62972700      -2.20233100      -0.06573200
H        3.07286500      -2.48716200      -0.00439800
H        1.49989900       4.56697900       0.11841200
H        3.93550500       4.22152900       0.17822500
H        6.75033500       0.44779700       0.16755800
H       -0.40199700       4.81321100       0.07071000
H       -2.84532000       5.09816700       0.00933800
H       -3.70773700      -1.61056600      -0.17200800
H       -1.27202900      -1.95588300      -0.11238600
H       -6.52266300       2.16338500      -0.16179200
C       12.61944391       1.13006580       8.54160394
C       12.14312046      -0.12927312       8.05463810
C       11.09671809      -0.14653194       7.03783067
C       12.09747179       2.37260152       8.05834195
C       11.05125451       2.35547201       7.04145782
C       10.57488451       1.09609931       6.55461120
C        9.55768433       1.07906716       5.56607392
C        9.02619980       2.30323349       5.07302063
C        9.07113824      -0.16227390       5.06977032
C        8.00737912      -0.18053362       4.03601543
C       10.50837572       3.52728879       6.53629035
C        9.49803064       3.50620448       5.55428606
C       10.59664549      -1.33578858       6.52938816
C        9.58612776      -1.34882942       5.54747382
C        7.96250143       2.28569903       4.03929291
N        7.51401211       1.04462794       3.57999982
O        7.54085936      -1.23207219       3.56282994
O        7.45810080       3.32088387       3.56893195
C       12.68605591      -1.30109917       8.55947682
C       13.69639851      -1.28006443       9.54142852
C       13.63654684       1.14721399       9.53010030
C       14.16795750      -0.07707472      10.02277659
C       14.12299066       2.38850392      10.02663396
C       13.60767290       3.57485200       9.54882086
C       12.59726446       3.56188509       8.56685505
C       15.23168494      -0.05959871      11.05656771
C       15.18669873       2.40676180      11.06046821
N       15.68002756       1.18144362      11.51611549
O       15.73621281      -1.09479129      11.52674920
O       15.65311726       3.45820982      11.53393829
H       10.84724682       4.51496246       6.88428461
H        9.08362174       4.45468476       5.16969806
H       10.97126173      -2.31139786       6.87473497
H        9.20625532      -2.31058711       5.16013834
H        6.79707829       1.03249880       2.88328140
H       12.34724461      -2.28871826       8.21124940
H       14.11104010      -2.22853697       9.92594978
H       13.98733644       4.53669321       9.93624124
H       12.22241280       4.53736600       8.22144791
H       16.39692907       1.19342240      12.21286650
