80
Dimer: struct; Energy: -4906.06228 eV
C       -1.29972200       1.48833600      -0.03228100
C       -0.45010500       2.63965400       0.01843500
C        0.99654200       2.45238200       0.05441800
C       -0.76903400       0.15867800      -0.04877100
C        0.67752200      -0.02870400      -0.01297900
C        1.52709100       1.12265000       0.03785500
C        2.93347700       0.94084900       0.07277000
C        3.48023700      -0.37253000       0.05696900
C        3.79427800       2.07240500       0.12351100
C        5.26507800       1.88272800       0.16006300
C        1.24802600      -1.29258500      -0.02698300
C        2.64560500      -1.46904700       0.00777700
C        1.86805800       3.52983300       0.10418700
C        3.26457400       3.34539700       0.13880400
C        4.95087500      -0.56291500       0.09346700
N        5.75909100       0.57580800       0.14293500
O        6.06925500       2.83065500       0.20492200
O        5.48910000      -1.68427500       0.08194900
C       -1.02041300       3.90352800       0.03216900
C       -2.41794600       4.08003500      -0.00262400
C       -2.70602800       1.67000700      -0.06716000
C       -3.25245200       2.98347100      -0.05156500
C       -3.56691500       0.53850500      -0.11766500
C       -3.03687800      -0.73433100      -0.13279200
C       -1.64041100      -0.91883000      -0.09829200
C       -4.72314700       3.17392200      -0.08803700
C       -5.03773600       0.72818300      -0.15412500
N       -5.53143900       2.03522700      -0.13722100
O       -5.26133100       4.29529300      -0.07673500
O       -5.84203300      -0.21964700      -0.19870900
H        0.62972700      -2.20233100      -0.06573200
H        3.07286500      -2.48716200      -0.00439800
H        1.49989900       4.56697900       0.11841200
H        3.93550500       4.22152900       0.17822500
H        6.75033500       0.44779700       0.16755800
H       -0.40199700       4.81321100       0.07071000
H       -2.84532000       5.09816700       0.00933800
H       -3.70773700      -1.61056600      -0.17200800
H       -1.27202900      -1.95588300      -0.11238600
H       -6.52266300       2.16338500      -0.16179200
C        8.29375316       7.47455989       5.99841228
C        8.39339608       8.17115616       4.75150442
C        8.38432760       7.40602508       3.50906919
C        8.18537156       6.04824057       6.05972055
C        8.17610801       5.28305889       4.81741281
C        8.27587196       5.97970002       3.57053434
C        8.26700492       5.23610303       2.36257029
C        8.15990941       3.81797291       2.40254613
C        8.36522958       5.91013340       1.11356790
C        8.35602116       5.13288659      -0.14990693
C        8.07321223       3.90013638       4.81543814
C        8.06471549       3.16501455       3.61331590
C        8.47809573       8.02649148       2.27248247
C        8.46900412       7.28455734       1.07459976
C        8.15060853       3.04015158       1.13950925
N        8.24921924       3.74231928      -0.06447859
O        8.43871393       5.66336888      -1.27197155
O        8.05947236       1.79998976       1.10852685
C        8.49601742       9.55400936       4.75330233
C        8.50448285      10.28915542       5.95536405
C        8.30264648       8.21800349       7.20635681
C        8.40953366       9.63608659       7.16603901
C        8.20466257       7.54404235       8.45541625
C        8.10105525       6.16961338       8.49401725
C        8.09184426       5.42764947       7.29620469
C        8.41886577      10.41398966       8.42910088
C        8.21396336       8.32129277       9.71891013
N        8.32054192       9.71186035       9.63314747
O        8.50978608      11.65415855       8.46004068
O        8.13155362       7.79093026      10.84104530
H        7.99456096       3.32789284       5.75233954
H        7.98169016       2.06429321       3.64118721
H        8.56292534       9.12019902       2.18291139
H        8.54508652       7.80461460       0.10348616
H        8.24299140       3.21833303      -0.91592290
H        8.57445462      10.12616098       3.81631939
H        8.58729930      11.38995257       5.92758905
H        8.02516959       5.64941975       9.46510809
H        8.00714573       4.33392684       7.38553466
H        8.32682997      10.23596885      10.48451341
