80
Dimer: struct; Energy: -4906.06228 eV
C       -1.29972200       1.48833600      -0.03228100
C       -0.45010500       2.63965400       0.01843500
C        0.99654200       2.45238200       0.05441800
C       -0.76903400       0.15867800      -0.04877100
C        0.67752200      -0.02870400      -0.01297900
C        1.52709100       1.12265000       0.03785500
C        2.93347700       0.94084900       0.07277000
C        3.48023700      -0.37253000       0.05696900
C        3.79427800       2.07240500       0.12351100
C        5.26507800       1.88272800       0.16006300
C        1.24802600      -1.29258500      -0.02698300
C        2.64560500      -1.46904700       0.00777700
C        1.86805800       3.52983300       0.10418700
C        3.26457400       3.34539700       0.13880400
C        4.95087500      -0.56291500       0.09346700
N        5.75909100       0.57580800       0.14293500
O        6.06925500       2.83065500       0.20492200
O        5.48910000      -1.68427500       0.08194900
C       -1.02041300       3.90352800       0.03216900
C       -2.41794600       4.08003500      -0.00262400
C       -2.70602800       1.67000700      -0.06716000
C       -3.25245200       2.98347100      -0.05156500
C       -3.56691500       0.53850500      -0.11766500
C       -3.03687800      -0.73433100      -0.13279200
C       -1.64041100      -0.91883000      -0.09829200
C       -4.72314700       3.17392200      -0.08803700
C       -5.03773600       0.72818300      -0.15412500
N       -5.53143900       2.03522700      -0.13722100
O       -5.26133100       4.29529300      -0.07673500
O       -5.84203300      -0.21964700      -0.19870900
H        0.62972700      -2.20233100      -0.06573200
H        3.07286500      -2.48716200      -0.00439800
H        1.49989900       4.56697900       0.11841200
H        3.93550500       4.22152900       0.17822500
H        6.75033500       0.44779700       0.16755800
H       -0.40199700       4.81321100       0.07071000
H       -2.84532000       5.09816700       0.00933800
H       -3.70773700      -1.61056600      -0.17200800
H       -1.27202900      -1.95588300      -0.11238600
H       -6.52266300       2.16338500      -0.16179200
C        8.67337913       1.17099365       3.92402058
C        9.79122973       1.98086729       4.30411137
C        9.60334697       3.02244062       5.30859044
C        7.37662040       1.35490378       4.50236818
C        7.18866914       2.39626644       5.50693549
C        8.30653059       3.20619054       5.88690438
C        8.12414398       4.21876774       6.86343639
C        6.84320464       4.41703810       7.44998891
C        9.22267229       5.03393609       7.25421524
C        9.03236541       6.09297973       8.27537924
C        5.95584328       2.61987348       6.10124718
C        5.77869626       3.62674606       7.07098978
C       10.64915000       3.83704005       5.71558127
C       10.46422718       4.84192286       6.68588328
C        6.65221574       5.47582829       8.47118490
N        7.75791835       6.25321040       8.82537279
O        9.95230015       6.83738226       8.65860701
O        5.55828398       5.69795892       9.02003675
C       11.02410470       1.75721761       3.71012699
C       11.20130264       0.75036220       2.74043280
C        8.85563126       0.15848021       2.94753804
C       10.13669683      -0.03967542       2.36135084
C        7.75710704      -0.65658255       2.55652500
C        6.51567128      -0.46419453       3.12494705
C        6.33071080       0.54056472       4.09530713
C       10.32774486      -1.09847978       1.34008715
C        7.94739592      -1.71557883       1.53528139
N        9.22201104      -1.87572022       0.98564202
O       11.42173193      -1.32072572       0.79141446
O        7.02749927      -2.45986780       1.15176192
H        5.07237171       2.01909834       5.83670961
H        4.78571948       3.78295887       7.52799325
H       11.66044188       3.72754019       5.29520793
H       11.31476780       5.47637629       6.99143068
H        7.62948896       6.96691889       9.51361973
H       11.90755767       2.35792725       3.97490181
H       12.19433968       0.59392514       2.28349814
H        5.66498781      -1.09847158       2.81932028
H        5.31948340       0.65032739       4.51572853
H        9.35057361      -2.58935827       0.29735021
