80
Dimer: struct; Energy: -4906.06228 eV
C       -1.29972200       1.48833600      -0.03228100
C       -0.45010500       2.63965400       0.01843500
C        0.99654200       2.45238200       0.05441800
C       -0.76903400       0.15867800      -0.04877100
C        0.67752200      -0.02870400      -0.01297900
C        1.52709100       1.12265000       0.03785500
C        2.93347700       0.94084900       0.07277000
C        3.48023700      -0.37253000       0.05696900
C        3.79427800       2.07240500       0.12351100
C        5.26507800       1.88272800       0.16006300
C        1.24802600      -1.29258500      -0.02698300
C        2.64560500      -1.46904700       0.00777700
C        1.86805800       3.52983300       0.10418700
C        3.26457400       3.34539700       0.13880400
C        4.95087500      -0.56291500       0.09346700
N        5.75909100       0.57580800       0.14293500
O        6.06925500       2.83065500       0.20492200
O        5.48910000      -1.68427500       0.08194900
C       -1.02041300       3.90352800       0.03216900
C       -2.41794600       4.08003500      -0.00262400
C       -2.70602800       1.67000700      -0.06716000
C       -3.25245200       2.98347100      -0.05156500
C       -3.56691500       0.53850500      -0.11766500
C       -3.03687800      -0.73433100      -0.13279200
C       -1.64041100      -0.91883000      -0.09829200
C       -4.72314700       3.17392200      -0.08803700
C       -5.03773600       0.72818300      -0.15412500
N       -5.53143900       2.03522700      -0.13722100
O       -5.26133100       4.29529300      -0.07673500
O       -5.84203300      -0.21964700      -0.19870900
H        0.62972700      -2.20233100      -0.06573200
H        3.07286500      -2.48716200      -0.00439800
H        1.49989900       4.56697900       0.11841200
H        3.93550500       4.22152900       0.17822500
H        6.75033500       0.44779700       0.16755800
H       -0.40199700       4.81321100       0.07071000
H       -2.84532000       5.09816700       0.00933800
H       -3.70773700      -1.61056600      -0.17200800
H       -1.27202900      -1.95588300      -0.11238600
H       -6.52266300       2.16338500      -0.16179200
C        2.97747462       9.18343426       5.22596180
C        2.21551101       8.47342281       6.20843293
C        2.43975723       8.75850287       7.62179633
C        3.95307804      10.16529614       5.59207284
C        4.17726861      10.45057743       7.00532105
C        3.41535795       9.74045009       7.98775625
C        3.63312972      10.01746850       9.36181175
C        4.59811906      10.98982780       9.74583457
C        2.88599710       9.32227391      10.35300765
C        3.11344249       9.61164680      11.79005253
C        5.10867188      11.39106296       7.41889210
C        5.32207977      11.66344972       8.78484843
C        1.73163606       8.10209508       8.61709075
C        1.95067712       8.37986199       9.98103300
C        4.82603323      11.27969967      11.18263105
N        4.07051271      10.57387309      12.12249691
O        2.49283529       9.03813272      12.70285419
O        5.65444433      12.11755288      11.58138423
C        1.28393577       7.53316226       5.79503845
C        1.07047461       7.26077468       4.42913102
C        2.75982534       8.90648822       3.85197230
C        1.79464755       7.93426297       3.46827975
C        3.50707733       9.60146451       2.86071232
C        4.44241311      10.54369285       3.23304589
C        4.66141719      10.82158090       4.59692479
C        1.56670092       7.64432025       2.03143629
C        3.27969355       9.31202172       1.42365248
N        2.32239310       8.34991273       1.09151613
O        0.73813511       6.80662103       1.63271160
O        3.90041429       9.88525579       0.51076061
H        5.71400966      11.95788706       6.69521432
H        6.07032891      12.41759198       9.08593007
H        0.97361202       7.34107111       8.37697141
H        1.37248092       7.84206004      10.75289304
H        4.22392087      10.76902479      13.09096969
H        0.67850577       6.96654625       6.51881170
H        0.32206165       6.50676044       4.12792519
H        5.02082810      11.08142558       2.46125766
H        5.41947377      11.58247536       4.83728435
H        2.16891506       8.15462620       0.12308395
