80
Dimer: struct; Energy: -4906.06228 eV
C       -1.29972200       1.48833600      -0.03228100
C       -0.45010500       2.63965400       0.01843500
C        0.99654200       2.45238200       0.05441800
C       -0.76903400       0.15867800      -0.04877100
C        0.67752200      -0.02870400      -0.01297900
C        1.52709100       1.12265000       0.03785500
C        2.93347700       0.94084900       0.07277000
C        3.48023700      -0.37253000       0.05696900
C        3.79427800       2.07240500       0.12351100
C        5.26507800       1.88272800       0.16006300
C        1.24802600      -1.29258500      -0.02698300
C        2.64560500      -1.46904700       0.00777700
C        1.86805800       3.52983300       0.10418700
C        3.26457400       3.34539700       0.13880400
C        4.95087500      -0.56291500       0.09346700
N        5.75909100       0.57580800       0.14293500
O        6.06925500       2.83065500       0.20492200
O        5.48910000      -1.68427500       0.08194900
C       -1.02041300       3.90352800       0.03216900
C       -2.41794600       4.08003500      -0.00262400
C       -2.70602800       1.67000700      -0.06716000
C       -3.25245200       2.98347100      -0.05156500
C       -3.56691500       0.53850500      -0.11766500
C       -3.03687800      -0.73433100      -0.13279200
C       -1.64041100      -0.91883000      -0.09829200
C       -4.72314700       3.17392200      -0.08803700
C       -5.03773600       0.72818300      -0.15412500
N       -5.53143900       2.03522700      -0.13722100
O       -5.26133100       4.29529300      -0.07673500
O       -5.84203300      -0.21964700      -0.19870900
H        0.62972700      -2.20233100      -0.06573200
H        3.07286500      -2.48716200      -0.00439800
H        1.49989900       4.56697900       0.11841200
H        3.93550500       4.22152900       0.17822500
H        6.75033500       0.44779700       0.16755800
H       -0.40199700       4.81321100       0.07071000
H       -2.84532000       5.09816700       0.00933800
H       -3.70773700      -1.61056600      -0.17200800
H       -1.27202900      -1.95588300      -0.11238600
H       -6.52266300       2.16338500      -0.16179200
C        3.24315850       8.24334394      -0.92368966
C        2.52705505       9.02782000      -1.88376645
C        1.31211591       9.72114467      -1.46858348
C        2.80010324       8.12058973       0.43223272
C        1.58534598       8.81397929       0.84755559
C        0.86921571       9.59834887      -0.11259514
C       -0.31187039      10.27251208       0.29080519
C       -0.76838079      10.16306260       1.63385382
C       -1.03742905      11.05673249      -0.64862814
C       -2.27262654      11.76188663      -0.22718912
C        1.10880265       8.73165567       2.14724608
C       -0.06487613       9.40288084       2.54412018
C        0.57766699      10.49473280      -2.35462181
C       -0.59514425      11.16296468      -1.95032999
C       -2.00342213      10.86794669       2.05595095
N       -2.68483402      11.62705196       1.10107542
O       -2.95024469      12.46184470      -1.00060423
O       -2.45316328      10.81150003       3.21431779
C        3.00358958       9.11045771      -3.18334453
C        4.17724962       8.43929738      -3.58024460
C        4.42415683       7.56915458      -1.32696268
C        4.88050782       7.67897301      -2.66997934
C        5.14965339       6.78472088      -0.38765843
C        4.70700189       6.67858852       0.91390797
C        3.53429656       7.34686518       1.31828248
C        6.11558217       6.97405884      -3.09215575
C        6.38481612       6.07948399      -0.80912662
N        6.79689626       6.21469999      -2.13739579
O        6.56541192       7.03069953      -4.25046819
O        7.06237862       5.37927753      -0.03589762
H        1.63017280       8.13937975       2.91458911
H       -0.42161686       9.31982459       3.58579921
H        0.88474448      10.61413088      -3.40479453
H       -1.16065697      11.77245512      -2.67698428
H       -3.51728965      12.10224190       1.38527593
H        2.48224001       9.70293896      -3.95055214
H        4.53420509       8.52246357      -4.62190221
H        5.27233807       6.06894440       1.64061735
H        3.22696215       7.22751483       2.36837005
H        7.62930763       5.73952697      -2.42174619
