80
Dimer: struct; Energy: -4906.06228 eV
C       -1.29972200       1.48833600      -0.03228100
C       -0.45010500       2.63965400       0.01843500
C        0.99654200       2.45238200       0.05441800
C       -0.76903400       0.15867800      -0.04877100
C        0.67752200      -0.02870400      -0.01297900
C        1.52709100       1.12265000       0.03785500
C        2.93347700       0.94084900       0.07277000
C        3.48023700      -0.37253000       0.05696900
C        3.79427800       2.07240500       0.12351100
C        5.26507800       1.88272800       0.16006300
C        1.24802600      -1.29258500      -0.02698300
C        2.64560500      -1.46904700       0.00777700
C        1.86805800       3.52983300       0.10418700
C        3.26457400       3.34539700       0.13880400
C        4.95087500      -0.56291500       0.09346700
N        5.75909100       0.57580800       0.14293500
O        6.06925500       2.83065500       0.20492200
O        5.48910000      -1.68427500       0.08194900
C       -1.02041300       3.90352800       0.03216900
C       -2.41794600       4.08003500      -0.00262400
C       -2.70602800       1.67000700      -0.06716000
C       -3.25245200       2.98347100      -0.05156500
C       -3.56691500       0.53850500      -0.11766500
C       -3.03687800      -0.73433100      -0.13279200
C       -1.64041100      -0.91883000      -0.09829200
C       -4.72314700       3.17392200      -0.08803700
C       -5.03773600       0.72818300      -0.15412500
N       -5.53143900       2.03522700      -0.13722100
O       -5.26133100       4.29529300      -0.07673500
O       -5.84203300      -0.21964700      -0.19870900
H        0.62972700      -2.20233100      -0.06573200
H        3.07286500      -2.48716200      -0.00439800
H        1.49989900       4.56697900       0.11841200
H        3.93550500       4.22152900       0.17822500
H        6.75033500       0.44779700       0.16755800
H       -0.40199700       4.81321100       0.07071000
H       -2.84532000       5.09816700       0.00933800
H       -3.70773700      -1.61056600      -0.17200800
H       -1.27202900      -1.95588300      -0.11238600
H       -6.52266300       2.16338500      -0.16179200
C        2.11914570       0.36660384       6.17195570
C        2.09569439       1.43261946       5.21643749
C        1.95514947       2.80584956       5.68934270
C        2.00862788       0.61091937       7.57836524
C        1.86827114       1.98404688       8.05137495
C        1.84470792       3.05001743       7.09580225
C        1.70815891       4.38508653       7.55529882
C        1.59708053       4.64844267       8.94902250
C        1.68258746       5.45794198       6.62132919
C        1.53977831       6.85425013       7.10142830
C        1.75737543       2.28076005       9.40145996
C        1.62191302       3.60833468       9.85397481
C        1.92606929       3.87802948       4.81042158
C        1.79025677       5.20292257       5.27051416
C        1.45428569       6.04444861       9.42978411
N        1.43381343       7.06746049       8.47827066
O        1.51075652       7.83406464       6.33566082
O        1.35296321       6.33898315      10.63404746
C        2.20684599       1.13610921       3.86642108
C        2.34234150      -0.19140959       3.41387433
C        2.25564468      -0.96841569       5.71259926
C        2.36691284      -1.23141611       4.31887753
C        2.28099042      -2.04135524       6.64647949
C        2.17314572      -1.78598603       7.99719620
C        2.03744836      -0.46114829       8.45734987
C        2.50969004      -2.62746534       3.83803785
C        2.42370938      -3.43768807       6.16636763
N        2.52988634      -3.65055920       4.78948537
O        2.61122573      -2.92194726       2.63378971
O        2.45247182      -4.41761286       6.93199367
H        1.77122822       1.49019576      10.16712903
H        1.53551664       3.81582214      10.93505858
H        2.00801954       3.73213568       3.72257307
H        1.77004358       6.03793390       4.54825575
H        1.33756597       8.00846442       8.80200793
H        2.19318843       1.92678470       3.10085419
H        2.42895834      -0.39899481       2.33276828
H        2.19314305      -2.62095806       8.71955295
H        1.95536011      -0.31502357       9.54514211
H        2.62609109      -4.59151564       4.46560446
