80
Dimer: struct; Energy: -4906.06228 eV
C       -1.29972200       1.48833600      -0.03228100
C       -0.45010500       2.63965400       0.01843500
C        0.99654200       2.45238200       0.05441800
C       -0.76903400       0.15867800      -0.04877100
C        0.67752200      -0.02870400      -0.01297900
C        1.52709100       1.12265000       0.03785500
C        2.93347700       0.94084900       0.07277000
C        3.48023700      -0.37253000       0.05696900
C        3.79427800       2.07240500       0.12351100
C        5.26507800       1.88272800       0.16006300
C        1.24802600      -1.29258500      -0.02698300
C        2.64560500      -1.46904700       0.00777700
C        1.86805800       3.52983300       0.10418700
C        3.26457400       3.34539700       0.13880400
C        4.95087500      -0.56291500       0.09346700
N        5.75909100       0.57580800       0.14293500
O        6.06925500       2.83065500       0.20492200
O        5.48910000      -1.68427500       0.08194900
C       -1.02041300       3.90352800       0.03216900
C       -2.41794600       4.08003500      -0.00262400
C       -2.70602800       1.67000700      -0.06716000
C       -3.25245200       2.98347100      -0.05156500
C       -3.56691500       0.53850500      -0.11766500
C       -3.03687800      -0.73433100      -0.13279200
C       -1.64041100      -0.91883000      -0.09829200
C       -4.72314700       3.17392200      -0.08803700
C       -5.03773600       0.72818300      -0.15412500
N       -5.53143900       2.03522700      -0.13722100
O       -5.26133100       4.29529300      -0.07673500
O       -5.84203300      -0.21964700      -0.19870900
H        0.62972700      -2.20233100      -0.06573200
H        3.07286500      -2.48716200      -0.00439800
H        1.49989900       4.56697900       0.11841200
H        3.93550500       4.22152900       0.17822500
H        6.75033500       0.44779700       0.16755800
H       -0.40199700       4.81321100       0.07071000
H       -2.84532000       5.09816700       0.00933800
H       -3.70773700      -1.61056600      -0.17200800
H       -1.27202900      -1.95588300      -0.11238600
H       -6.52266300       2.16338500      -0.16179200
C        7.25124185       9.91344306       3.89714779
C        6.06551613      10.18939266       4.65071307
C        6.03946606      11.35279322       5.53103895
C        8.41175613      10.74749326       3.98351304
C        8.38576098      11.91096161       4.86361700
C        7.20004656      12.18679819       5.61725027
C        7.17445769      13.31777671       6.47306861
C        8.31760037      14.15890050       6.57254805
C        6.00558191      13.60853836       7.23014131
C        5.97841160      14.79115645       8.12526268
C        9.47968360      12.75421785       4.98738423
C        9.45034588      13.87677660       5.83860413
C        4.91931629      11.66919740       6.28474355
C        4.89754855      12.79348048       7.13385227
C        8.29109887      15.34164170       7.46740871
N        7.12284470      15.58998355       8.19256991
O        4.98775772      15.09804494       8.81206900
O        9.25724205      16.11423952       7.59751259
C        4.97148448       9.34643867       4.52685572
C        5.00076273       8.22391979       3.67564604
C        7.27695213       8.78254738       3.04138415
C        6.13361432       7.94177119       2.94196523
C        8.44586587       8.49157305       2.28445049
C        9.55375764       9.30675072       2.38109783
C        9.53201846      10.43107922       3.23007548
C        6.16007082       6.75895097       2.04710101
C        8.47306789       7.30888800       1.38938758
N        7.32840122       6.51038602       1.32211766
O        5.19384192       5.98649975       1.91685706
O        9.46373703       7.00172571       0.70273695
H       10.40924017      12.57669831       4.42538395
H       10.33601665      14.53142335       5.91786583
H        4.00780719      11.05348861       6.24641504
H        3.99191117      13.02198643       7.72284774
H        7.10469660      16.38706912       8.79579708
H        4.04190281       9.52418249       5.08875604
H        4.11502440       7.56929560       3.59615287
H       10.45954665       9.07822060       1.79228741
H       10.44344984      11.04686095       3.26865733
H        7.34642557       5.71324198       0.71896782
