80
Dimer: struct; Energy: -4906.06228 eV
C       -1.29972200       1.48833600      -0.03228100
C       -0.45010500       2.63965400       0.01843500
C        0.99654200       2.45238200       0.05441800
C       -0.76903400       0.15867800      -0.04877100
C        0.67752200      -0.02870400      -0.01297900
C        1.52709100       1.12265000       0.03785500
C        2.93347700       0.94084900       0.07277000
C        3.48023700      -0.37253000       0.05696900
C        3.79427800       2.07240500       0.12351100
C        5.26507800       1.88272800       0.16006300
C        1.24802600      -1.29258500      -0.02698300
C        2.64560500      -1.46904700       0.00777700
C        1.86805800       3.52983300       0.10418700
C        3.26457400       3.34539700       0.13880400
C        4.95087500      -0.56291500       0.09346700
N        5.75909100       0.57580800       0.14293500
O        6.06925500       2.83065500       0.20492200
O        5.48910000      -1.68427500       0.08194900
C       -1.02041300       3.90352800       0.03216900
C       -2.41794600       4.08003500      -0.00262400
C       -2.70602800       1.67000700      -0.06716000
C       -3.25245200       2.98347100      -0.05156500
C       -3.56691500       0.53850500      -0.11766500
C       -3.03687800      -0.73433100      -0.13279200
C       -1.64041100      -0.91883000      -0.09829200
C       -4.72314700       3.17392200      -0.08803700
C       -5.03773600       0.72818300      -0.15412500
N       -5.53143900       2.03522700      -0.13722100
O       -5.26133100       4.29529300      -0.07673500
O       -5.84203300      -0.21964700      -0.19870900
H        0.62972700      -2.20233100      -0.06573200
H        3.07286500      -2.48716200      -0.00439800
H        1.49989900       4.56697900       0.11841200
H        3.93550500       4.22152900       0.17822500
H        6.75033500       0.44779700       0.16755800
H       -0.40199700       4.81321100       0.07071000
H       -2.84532000       5.09816700       0.00933800
H       -3.70773700      -1.61056600      -0.17200800
H       -1.27202900      -1.95588300      -0.11238600
H       -6.52266300       2.16338500      -0.16179200
C        9.79169583       1.57634841       2.17952932
C       10.13182236       0.28677014       2.70035188
C        9.27550461      -0.31601985       3.71648044
C        8.63468855       2.29047891       2.62813141
C        7.77824160       1.68774251       3.64406685
C        8.11848126       0.39820974       4.16494094
C        7.28612877      -0.18802564       5.15272111
C        6.13180197       0.50573316       5.61140283
C        7.60749054      -1.46860886       5.68263169
C        6.73733157      -2.08201779       6.71564616
C        6.64498381       2.33260239       4.11624119
C        5.82063216       1.74690839       5.09755717
C        9.55528656      -1.56196563       4.25709023
C        8.72618272      -2.14117039       5.23820213
C        5.26123367      -0.10708076       6.64432325
N        5.61397718      -1.36600900       7.13729583
O        6.96457861      -3.19736269       7.21728657
O        4.23957373       0.44863276       7.08552675
C       11.26482584      -0.35829560       2.22811187
C       12.08916499       0.22732725       1.24679918
C       10.62394114       2.16265398       1.19183960
C       11.77803605       1.46857257       0.73322647
C       10.30278862       3.44333647       0.66204021
C        9.18411612       4.11567303       1.10680411
C        8.35493250       3.53649427       2.08780191
C       12.64869152       2.08137722      -0.29971839
C       11.17300950       4.05679260      -0.37092091
N       12.29616126       3.34043829      -0.79253575
O       13.67021918       1.52554721      -0.74105376
O       10.94603894       5.17223795      -0.87244772
H        6.34932695       3.32433783       3.74143354
H        4.92407286       2.28294020       5.45548009
H       10.43467080      -2.14243304       3.93903965
H        8.97276700      -3.13496087       5.65158619
H        5.02741145      -1.77928573       7.83350037
H       11.56026671      -1.35012854       2.60285048
H       12.98567830      -0.30874314       0.88864163
H        8.93753895       5.10958548       0.69362715
H        7.47556476       4.11682760       2.40609184
H       12.88284138       3.75361501      -1.48869999
