80
Dimer: struct; Energy: -4906.06228 eV
C       -1.29972200       1.48833600      -0.03228100
C       -0.45010500       2.63965400       0.01843500
C        0.99654200       2.45238200       0.05441800
C       -0.76903400       0.15867800      -0.04877100
C        0.67752200      -0.02870400      -0.01297900
C        1.52709100       1.12265000       0.03785500
C        2.93347700       0.94084900       0.07277000
C        3.48023700      -0.37253000       0.05696900
C        3.79427800       2.07240500       0.12351100
C        5.26507800       1.88272800       0.16006300
C        1.24802600      -1.29258500      -0.02698300
C        2.64560500      -1.46904700       0.00777700
C        1.86805800       3.52983300       0.10418700
C        3.26457400       3.34539700       0.13880400
C        4.95087500      -0.56291500       0.09346700
N        5.75909100       0.57580800       0.14293500
O        6.06925500       2.83065500       0.20492200
O        5.48910000      -1.68427500       0.08194900
C       -1.02041300       3.90352800       0.03216900
C       -2.41794600       4.08003500      -0.00262400
C       -2.70602800       1.67000700      -0.06716000
C       -3.25245200       2.98347100      -0.05156500
C       -3.56691500       0.53850500      -0.11766500
C       -3.03687800      -0.73433100      -0.13279200
C       -1.64041100      -0.91883000      -0.09829200
C       -4.72314700       3.17392200      -0.08803700
C       -5.03773600       0.72818300      -0.15412500
N       -5.53143900       2.03522700      -0.13722100
O       -5.26133100       4.29529300      -0.07673500
O       -5.84203300      -0.21964700      -0.19870900
H        0.62972700      -2.20233100      -0.06573200
H        3.07286500      -2.48716200      -0.00439800
H        1.49989900       4.56697900       0.11841200
H        3.93550500       4.22152900       0.17822500
H        6.75033500       0.44779700       0.16755800
H       -0.40199700       4.81321100       0.07071000
H       -2.84532000       5.09816700       0.00933800
H       -3.70773700      -1.61056600      -0.17200800
H       -1.27202900      -1.95588300      -0.11238600
H       -6.52266300       2.16338500      -0.16179200
C        4.06240017      10.25342316       3.20949123
C        4.46015832       9.83555667       4.51988444
C        4.25122491      10.73926585       5.64629895
C        3.46532712      11.53325182       2.97404605
C        3.25618691      12.43692285       4.10034814
C        3.65407245      12.01905044       5.41070586
C        3.45099437      12.89738552       6.50591316
C        2.85904694      14.17339072       6.29244294
C        3.83974107      12.50034871       7.81557333
C        3.62757267      13.41858423       8.96117105
C        2.68247914      13.68821154       3.93241326
C        2.48237424      14.55787349       5.02292703
C        4.61666865      10.38857052       6.93718292
C        4.41343737      11.26369800       8.02268781
C        2.64657113      15.09206040       7.43754325
N        3.04308513      14.66191399       8.70644079
O        3.94570466      13.12979570      10.12850639
O        2.13465128      16.21915577       7.31563685
C        5.03359404       8.58426864       4.68801258
C        5.23368106       7.71458324       3.59756485
C        4.26545094       9.37524248       2.11428051
C        4.85720443       8.09926529       2.32810309
C        3.87695082       9.77228632       0.80454855
C        3.30342830      11.00905532       0.59777843
C        3.10007127      11.88415957       1.68322244
C        5.06973644       7.18052613       1.18298560
C        4.08920604       8.85407527      -0.34107691
N        4.67350150       7.61072335      -0.08599413
O        5.58145862       6.05335885       1.30495695
O        3.77137703       9.14283583      -1.50849507
H        2.36321006      14.04631437       2.94182629
H        2.02317309      15.54881096       4.86033944
H        5.07830222       9.41446787       7.15951983
H        4.71403819      10.95862718       9.04047003
H        2.90001448      15.28088922       9.47842410
H        5.35263496       8.22619262       5.67868981
H        5.69270769       6.72349044       3.76008865
H        3.00296595      11.31432213      -0.42001920
H        2.63856771      12.85835795       1.46110796
H        4.81667481       6.99166693      -0.85789036
