80
Dimer: struct; Energy: -4906.06228 eV
C       -1.29972200       1.48833600      -0.03228100
C       -0.45010500       2.63965400       0.01843500
C        0.99654200       2.45238200       0.05441800
C       -0.76903400       0.15867800      -0.04877100
C        0.67752200      -0.02870400      -0.01297900
C        1.52709100       1.12265000       0.03785500
C        2.93347700       0.94084900       0.07277000
C        3.48023700      -0.37253000       0.05696900
C        3.79427800       2.07240500       0.12351100
C        5.26507800       1.88272800       0.16006300
C        1.24802600      -1.29258500      -0.02698300
C        2.64560500      -1.46904700       0.00777700
C        1.86805800       3.52983300       0.10418700
C        3.26457400       3.34539700       0.13880400
C        4.95087500      -0.56291500       0.09346700
N        5.75909100       0.57580800       0.14293500
O        6.06925500       2.83065500       0.20492200
O        5.48910000      -1.68427500       0.08194900
C       -1.02041300       3.90352800       0.03216900
C       -2.41794600       4.08003500      -0.00262400
C       -2.70602800       1.67000700      -0.06716000
C       -3.25245200       2.98347100      -0.05156500
C       -3.56691500       0.53850500      -0.11766500
C       -3.03687800      -0.73433100      -0.13279200
C       -1.64041100      -0.91883000      -0.09829200
C       -4.72314700       3.17392200      -0.08803700
C       -5.03773600       0.72818300      -0.15412500
N       -5.53143900       2.03522700      -0.13722100
O       -5.26133100       4.29529300      -0.07673500
O       -5.84203300      -0.21964700      -0.19870900
H        0.62972700      -2.20233100      -0.06573200
H        3.07286500      -2.48716200      -0.00439800
H        1.49989900       4.56697900       0.11841200
H        3.93550500       4.22152900       0.17822500
H        6.75033500       0.44779700       0.16755800
H       -0.40199700       4.81321100       0.07071000
H       -2.84532000       5.09816700       0.00933800
H       -3.70773700      -1.61056600      -0.17200800
H       -1.27202900      -1.95588300      -0.11238600
H       -6.52266300       2.16338500      -0.16179200
C        9.76121865       8.13238318      -0.64624186
C        9.90450278       9.47728588      -1.11598720
C       10.86123504      10.36037958      -0.45722926
C       10.53075845       7.63026333       0.45174549
C       11.48760152       8.51315992       1.11042772
C       11.63076078       9.85809222       0.64071487
C       12.56083168      10.71675452       1.28091750
C       13.33500669      10.23642577       2.37366537
C       12.71746657      12.05654565       0.82881438
C       13.68996698      12.95483992       1.49805008
C       12.26005053       8.08175561       2.17826617
C       13.18292760       8.93778096       2.81158496
C       11.04245388      11.67217618      -0.86865016
C       11.96726828      12.52226333      -0.23025993
C       14.30766499      11.13413268       3.04330170
N       14.42938505      12.44206822       2.56702538
O       13.87252636      14.13497264       1.14985846
O       15.01282190      10.77366467       4.00251159
C        9.13237069       9.90873037      -2.18392213
C        8.20953196       9.05275474      -2.81727682
C        8.83121450       7.27370358      -1.28630364
C        8.05737176       7.75424936      -2.37912257
C        8.67434192       5.93396684      -0.83411956
C        9.42458685       5.46863374       0.22506747
C       10.34947205       6.31860761       0.86341065
C        7.08463801       6.85655471      -3.04880828
C        7.70176317       5.03568940      -1.50330540
N        6.96266113       5.54867956      -2.57239926
O        6.37965553       7.21698618      -4.00814739
O        7.51890346       3.85562854      -1.15505002
H       12.17974428       7.05587416       2.56884405
H       13.78518755       8.56780559       3.65991194
H       10.47045703      12.09569287      -1.70821460
H       12.09128311      13.56271399      -0.57867411
H       15.08486472      13.04735343       3.01817279
H        9.21291758      10.93458217      -2.57454626
H        7.60734355       9.42259213      -3.66578953
H        9.30050642       4.42823393       0.57370733
H       10.92148981       5.89534763       1.70307102
H        6.30711132       4.94352050      -3.02360894
