80
Dimer: struct; Energy: -4906.06228 eV
C       -1.29972200       1.48833600      -0.03228100
C       -0.45010500       2.63965400       0.01843500
C        0.99654200       2.45238200       0.05441800
C       -0.76903400       0.15867800      -0.04877100
C        0.67752200      -0.02870400      -0.01297900
C        1.52709100       1.12265000       0.03785500
C        2.93347700       0.94084900       0.07277000
C        3.48023700      -0.37253000       0.05696900
C        3.79427800       2.07240500       0.12351100
C        5.26507800       1.88272800       0.16006300
C        1.24802600      -1.29258500      -0.02698300
C        2.64560500      -1.46904700       0.00777700
C        1.86805800       3.52983300       0.10418700
C        3.26457400       3.34539700       0.13880400
C        4.95087500      -0.56291500       0.09346700
N        5.75909100       0.57580800       0.14293500
O        6.06925500       2.83065500       0.20492200
O        5.48910000      -1.68427500       0.08194900
C       -1.02041300       3.90352800       0.03216900
C       -2.41794600       4.08003500      -0.00262400
C       -2.70602800       1.67000700      -0.06716000
C       -3.25245200       2.98347100      -0.05156500
C       -3.56691500       0.53850500      -0.11766500
C       -3.03687800      -0.73433100      -0.13279200
C       -1.64041100      -0.91883000      -0.09829200
C       -4.72314700       3.17392200      -0.08803700
C       -5.03773600       0.72818300      -0.15412500
N       -5.53143900       2.03522700      -0.13722100
O       -5.26133100       4.29529300      -0.07673500
O       -5.84203300      -0.21964700      -0.19870900
H        0.62972700      -2.20233100      -0.06573200
H        3.07286500      -2.48716200      -0.00439800
H        1.49989900       4.56697900       0.11841200
H        3.93550500       4.22152900       0.17822500
H        6.75033500       0.44779700       0.16755800
H       -0.40199700       4.81321100       0.07071000
H       -2.84532000       5.09816700       0.00933800
H       -3.70773700      -1.61056600      -0.17200800
H       -1.27202900      -1.95588300      -0.11238600
H       -6.52266300       2.16338500      -0.16179200
C       11.25745151       4.43671378       2.78070353
C       11.02271419       5.69552965       2.14020740
C       10.20986997       5.73426081       0.92903553
C       10.71659398       3.21520161       2.26565671
C        9.90362682       3.25382997       1.05466142
C        9.66901824       4.51266165       0.41413878
C        8.87878690       4.55057624      -0.76326903
C        8.33231621       3.34750106      -1.29065926
C        8.63438518       5.79172573      -1.41425885
C        7.80806921       5.83181574      -2.64558365
C        9.35390687       2.10291316       0.51035950
C        8.56940390       2.14471039      -0.65941922
C        9.94930427       6.92403415       0.26611572
C        9.16389782       6.95784607      -0.90327103
C        7.50592438       3.38687570      -2.52187040
N        7.29115991       4.62696716      -3.12882975
O        7.55875144       6.88430995      -3.25989233
O        7.00099119       2.37066487      -3.03140457
C       11.57210444       6.84649782       2.68450506
C       12.35656272       6.80475536       3.85426852
C       12.04764471       4.39868032       3.95801641
C       12.59377517       5.60191261       4.48525795
C       12.29229518       3.15754633       4.60894385
C       11.76275778       1.99161440       4.09760012
C       10.97727300       2.02536871       2.92831635
C       13.42023140       5.56259124       5.71650508
C       13.11869763       3.11744462       5.84023274
N       13.63527342       4.32248639       6.32336439
O       13.92496851       6.57884135       6.22613125
O       13.36832225       2.06499884       6.45448719
H        9.51077911       1.11639085       0.97252586
H        8.14393344       1.21262895      -1.07107023
H       10.34666280       7.88385055       0.62981050
H        8.97228985       7.91951390      -1.41100233
H        6.73422521       4.65381166      -3.95868569
H       11.41498722       7.83299779       2.22235908
H       12.78192730       7.73685742       4.26613637
H       11.95447374       1.02983572       4.60514739
H       10.57991197       1.06566518       2.56437100
H       14.19226456       4.29578413       7.15318430
