80
Dimer: struct; Energy: -4906.06228 eV
C       -1.29972200       1.48833600      -0.03228100
C       -0.45010500       2.63965400       0.01843500
C        0.99654200       2.45238200       0.05441800
C       -0.76903400       0.15867800      -0.04877100
C        0.67752200      -0.02870400      -0.01297900
C        1.52709100       1.12265000       0.03785500
C        2.93347700       0.94084900       0.07277000
C        3.48023700      -0.37253000       0.05696900
C        3.79427800       2.07240500       0.12351100
C        5.26507800       1.88272800       0.16006300
C        1.24802600      -1.29258500      -0.02698300
C        2.64560500      -1.46904700       0.00777700
C        1.86805800       3.52983300       0.10418700
C        3.26457400       3.34539700       0.13880400
C        4.95087500      -0.56291500       0.09346700
N        5.75909100       0.57580800       0.14293500
O        6.06925500       2.83065500       0.20492200
O        5.48910000      -1.68427500       0.08194900
C       -1.02041300       3.90352800       0.03216900
C       -2.41794600       4.08003500      -0.00262400
C       -2.70602800       1.67000700      -0.06716000
C       -3.25245200       2.98347100      -0.05156500
C       -3.56691500       0.53850500      -0.11766500
C       -3.03687800      -0.73433100      -0.13279200
C       -1.64041100      -0.91883000      -0.09829200
C       -4.72314700       3.17392200      -0.08803700
C       -5.03773600       0.72818300      -0.15412500
N       -5.53143900       2.03522700      -0.13722100
O       -5.26133100       4.29529300      -0.07673500
O       -5.84203300      -0.21964700      -0.19870900
H        0.62972700      -2.20233100      -0.06573200
H        3.07286500      -2.48716200      -0.00439800
H        1.49989900       4.56697900       0.11841200
H        3.93550500       4.22152900       0.17822500
H        6.75033500       0.44779700       0.16755800
H       -0.40199700       4.81321100       0.07071000
H       -2.84532000       5.09816700       0.00933800
H       -3.70773700      -1.61056600      -0.17200800
H       -1.27202900      -1.95588300      -0.11238600
H       -6.52266300       2.16338500      -0.16179200
C        7.94718801       7.34351017       4.08477020
C        7.79754936       8.02670413       5.33409345
C        6.55231396       7.87655096       6.07974481
C        6.90890044       6.51716684       3.54717585
C        5.66376026       6.36679918       4.29278488
C        5.51413010       7.05011161       5.54204969
C        4.30369835       6.90423734       6.26714825
C        3.26009907       6.08734038       5.74971181
C        4.13591733       7.57521180       7.51037582
C        2.87024362       7.42295389       8.26896243
C        4.62397833       5.57956777       3.82141841
C        3.42307740       5.43714788       4.54469408
C        6.35099805       8.51417075       7.29458251
C        5.14724224       8.36695960       8.01205916
C        1.99424154       5.93462703       6.50776063
N        1.87187977       6.61130083       7.72410369
O        2.66313422       7.98302434       9.36015689
O        1.04602807       5.23538798       6.10873302
C        8.83727925       8.81370508       5.80569561
C       10.03817798       8.95612295       5.08249220
C        9.15748125       7.48933257       3.35961949
C       10.20093600       8.30609848       3.87740875
C        9.32526287       6.81858393       2.11626936
C        8.31368300       6.02704638       1.61481746
C        7.10998225       5.87970613       2.33227518
C       11.46685940       8.45887453       3.11935664
C       10.59091749       6.97091739       1.35762952
N       11.58918277       7.78244925       1.90285873
O       12.41513053       9.15794450       3.51851288
O       10.79805924       6.41113119       0.26630244
H        4.69978384       5.03829215       2.86606133
H        2.61136235       4.80379795       4.14564016
H        7.12416368       9.15766734       7.74128405
H        5.01377590       8.88637491       8.97730741
H        1.01880088       6.50857206       8.23524063
H        8.76143342       9.35477061       6.76117581
H       10.85007481       9.58931706       5.48158259
H        8.44696343       5.50773146       0.64945442
H        6.33663269       5.23635949       1.88571228
H       12.44229457       7.88530602       1.39180692
