80
Dimer: struct; Energy: -4906.06228 eV
C       -1.29972200       1.48833600      -0.03228100
C       -0.45010500       2.63965400       0.01843500
C        0.99654200       2.45238200       0.05441800
C       -0.76903400       0.15867800      -0.04877100
C        0.67752200      -0.02870400      -0.01297900
C        1.52709100       1.12265000       0.03785500
C        2.93347700       0.94084900       0.07277000
C        3.48023700      -0.37253000       0.05696900
C        3.79427800       2.07240500       0.12351100
C        5.26507800       1.88272800       0.16006300
C        1.24802600      -1.29258500      -0.02698300
C        2.64560500      -1.46904700       0.00777700
C        1.86805800       3.52983300       0.10418700
C        3.26457400       3.34539700       0.13880400
C        4.95087500      -0.56291500       0.09346700
N        5.75909100       0.57580800       0.14293500
O        6.06925500       2.83065500       0.20492200
O        5.48910000      -1.68427500       0.08194900
C       -1.02041300       3.90352800       0.03216900
C       -2.41794600       4.08003500      -0.00262400
C       -2.70602800       1.67000700      -0.06716000
C       -3.25245200       2.98347100      -0.05156500
C       -3.56691500       0.53850500      -0.11766500
C       -3.03687800      -0.73433100      -0.13279200
C       -1.64041100      -0.91883000      -0.09829200
C       -4.72314700       3.17392200      -0.08803700
C       -5.03773600       0.72818300      -0.15412500
N       -5.53143900       2.03522700      -0.13722100
O       -5.26133100       4.29529300      -0.07673500
O       -5.84203300      -0.21964700      -0.19870900
H        0.62972700      -2.20233100      -0.06573200
H        3.07286500      -2.48716200      -0.00439800
H        1.49989900       4.56697900       0.11841200
H        3.93550500       4.22152900       0.17822500
H        6.75033500       0.44779700       0.16755800
H       -0.40199700       4.81321100       0.07071000
H       -2.84532000       5.09816700       0.00933800
H       -3.70773700      -1.61056600      -0.17200800
H       -1.27202900      -1.95588300      -0.11238600
H       -6.52266300       2.16338500      -0.16179200
C        2.05116313       1.86408267       7.81877915
C        1.30334420       0.80621009       8.42839112
C        1.23559940       0.73323207       9.88415139
C        2.73405880       2.85211574       8.59809694
C        2.66623754       2.77935117      10.05378336
C        1.91849917       1.72138637      10.66334504
C        1.85243603       1.65027418      12.07853794
C        2.52415953       2.62280625      12.87045301
C        1.11451549       0.60647028      12.70297264
C        1.04519548       0.53172212      14.18289612
C        3.30731665       3.70839511      10.85936454
C        3.23928126       3.63436872      12.26487706
C        0.52676865      -0.26868728      10.52962357
C        0.46339560      -0.33617631      11.93564668
C        2.45522995       2.54867249      14.35035422
N        1.71959124       1.50721599      14.92180352
O        0.41712569      -0.35555729      14.78749694
O        3.02019755       3.36798973      15.09654316
C        0.66202479      -0.12269433       7.62299475
C        0.73000108      -0.04869019       6.21751747
C        2.11731922       1.93526515       6.40369121
C        1.44533351       0.96274236       5.61208227
C        2.85540991       2.97889747       5.77916925
C        3.50652520       3.92127576       6.54679649
C        3.44310181       3.85391308       7.95278012
C        1.51425374       1.03681629       4.13211314
C        2.92480611       3.05359287       4.29922795
N        2.25011477       2.07809176       3.56059300
O        0.94910070       0.21761352       3.38595529
O        3.55305721       3.94064813       3.69449940
H        3.89176309       4.53619243      10.42970552
H        3.75956705       4.38774779      12.88211296
H       -0.01129936      -1.04649214       9.96666918
H       -0.10847785      -1.14505625      12.42348243
H        1.67296763       1.45698729      15.91923076
H        0.07743146      -0.95033393       8.05277407
H        0.20955076      -0.80193995       5.60015966
H        4.07861260       4.73010494       6.05905802
H        3.98118928       4.63153551       8.51593914
H        2.29669196       2.12817045       2.56315833
