80
Dimer: struct; Energy: -4906.06228 eV
C       -1.29972200       1.48833600      -0.03228100
C       -0.45010500       2.63965400       0.01843500
C        0.99654200       2.45238200       0.05441800
C       -0.76903400       0.15867800      -0.04877100
C        0.67752200      -0.02870400      -0.01297900
C        1.52709100       1.12265000       0.03785500
C        2.93347700       0.94084900       0.07277000
C        3.48023700      -0.37253000       0.05696900
C        3.79427800       2.07240500       0.12351100
C        5.26507800       1.88272800       0.16006300
C        1.24802600      -1.29258500      -0.02698300
C        2.64560500      -1.46904700       0.00777700
C        1.86805800       3.52983300       0.10418700
C        3.26457400       3.34539700       0.13880400
C        4.95087500      -0.56291500       0.09346700
N        5.75909100       0.57580800       0.14293500
O        6.06925500       2.83065500       0.20492200
O        5.48910000      -1.68427500       0.08194900
C       -1.02041300       3.90352800       0.03216900
C       -2.41794600       4.08003500      -0.00262400
C       -2.70602800       1.67000700      -0.06716000
C       -3.25245200       2.98347100      -0.05156500
C       -3.56691500       0.53850500      -0.11766500
C       -3.03687800      -0.73433100      -0.13279200
C       -1.64041100      -0.91883000      -0.09829200
C       -4.72314700       3.17392200      -0.08803700
C       -5.03773600       0.72818300      -0.15412500
N       -5.53143900       2.03522700      -0.13722100
O       -5.26133100       4.29529300      -0.07673500
O       -5.84203300      -0.21964700      -0.19870900
H        0.62972700      -2.20233100      -0.06573200
H        3.07286500      -2.48716200      -0.00439800
H        1.49989900       4.56697900       0.11841200
H        3.93550500       4.22152900       0.17822500
H        6.75033500       0.44779700       0.16755800
H       -0.40199700       4.81321100       0.07071000
H       -2.84532000       5.09816700       0.00933800
H       -3.70773700      -1.61056600      -0.17200800
H       -1.27202900      -1.95588300      -0.11238600
H       -6.52266300       2.16338500      -0.16179200
C        4.05396674       6.30920132       9.19765538
C        4.05144938       4.95147845       9.65211832
C        3.99424493       3.87471624       8.66902934
C        4.00202626       6.63934602       7.80546332
C        3.94500806       5.56272543       6.82232835
C        3.94237498       4.20501870       7.27685351
C        3.88684151       3.15807589       6.32133321
C        3.83485909       3.46570282       4.93323233
C        3.88325448       1.80255692       6.75322144
C        3.82516137       0.70740326       5.75430718
C        3.89340872       5.82244737       5.46109797
C        3.83836135       4.77964579       4.51499607
C        3.98893726       2.54153854       9.05050909
C        3.93365845       1.50419140       8.09849698
C        3.77678726       2.37108962       3.93383036
N        3.77526195       1.05450307       4.40174891
O        3.81910286      -0.49615453       6.06845767
O        3.72982902       2.57527963       2.70771110
C        4.10331641       4.69160576      11.01321836
C        4.15839851       5.73434453      11.95932912
C        4.10945733       7.35615262      10.15302506
C        4.16164674       7.04820622      11.54099312
C        4.11281197       8.71170605       9.72124083
C        4.06224687       9.00970604       8.37590864
C        4.00708230       7.97243761       7.42386805
C        4.21969626       8.14282759      12.54048294
C        4.17081341       9.80687441      10.72017204
N        4.22093990       9.45945435      12.07264351
O        4.26687042       7.93860219      13.76657806
O        4.17660293      11.01046895      10.40618195
H        3.89362412       6.85185828       5.07155201
H        3.79796260       5.01531587       3.43699559
H        4.02770224       2.24653567      10.11017216
H        3.93070999       0.45101813       8.43035099
H        3.73611275       0.31652823       3.72838552
H        4.10330474       3.66213962      11.40263639
H        4.19901179       5.49876236      13.03739962
H        4.06498501      10.06287533       8.04393814
H        3.96818907       8.26720187       6.36415856
H        4.26004405      10.19732729      12.74611780
