80
Dimer: struct; Energy: -4906.06228 eV
C       -1.29972200       1.48833600      -0.03228100
C       -0.45010500       2.63965400       0.01843500
C        0.99654200       2.45238200       0.05441800
C       -0.76903400       0.15867800      -0.04877100
C        0.67752200      -0.02870400      -0.01297900
C        1.52709100       1.12265000       0.03785500
C        2.93347700       0.94084900       0.07277000
C        3.48023700      -0.37253000       0.05696900
C        3.79427800       2.07240500       0.12351100
C        5.26507800       1.88272800       0.16006300
C        1.24802600      -1.29258500      -0.02698300
C        2.64560500      -1.46904700       0.00777700
C        1.86805800       3.52983300       0.10418700
C        3.26457400       3.34539700       0.13880400
C        4.95087500      -0.56291500       0.09346700
N        5.75909100       0.57580800       0.14293500
O        6.06925500       2.83065500       0.20492200
O        5.48910000      -1.68427500       0.08194900
C       -1.02041300       3.90352800       0.03216900
C       -2.41794600       4.08003500      -0.00262400
C       -2.70602800       1.67000700      -0.06716000
C       -3.25245200       2.98347100      -0.05156500
C       -3.56691500       0.53850500      -0.11766500
C       -3.03687800      -0.73433100      -0.13279200
C       -1.64041100      -0.91883000      -0.09829200
C       -4.72314700       3.17392200      -0.08803700
C       -5.03773600       0.72818300      -0.15412500
N       -5.53143900       2.03522700      -0.13722100
O       -5.26133100       4.29529300      -0.07673500
O       -5.84203300      -0.21964700      -0.19870900
H        0.62972700      -2.20233100      -0.06573200
H        3.07286500      -2.48716200      -0.00439800
H        1.49989900       4.56697900       0.11841200
H        3.93550500       4.22152900       0.17822500
H        6.75033500       0.44779700       0.16755800
H       -0.40199700       4.81321100       0.07071000
H       -2.84532000       5.09816700       0.00933800
H       -3.70773700      -1.61056600      -0.17200800
H       -1.27202900      -1.95588300      -0.11238600
H       -6.52266300       2.16338500      -0.16179200
C       -0.32534209       9.15198216       4.00354551
C       -0.88509765       8.37076828       2.94225720
C       -0.44909315       8.61990641       1.57222677
C        0.65028575      10.17058043       3.75757817
C        1.08647908      10.41967015       2.38768509
C        0.52660215       9.63850406       1.32641935
C        0.95035854       9.88047020      -0.00552478
C        1.91905976      10.88824214      -0.27042892
C        0.40568906       9.11476627      -1.07370297
C        0.84854227       9.36750125      -2.46674717
C        2.02835237      11.39285369       2.08960019
C        2.44676399      11.63019267       0.76514706
C       -0.95643332       7.89481398       0.50462915
C       -0.53314993       8.13798347      -0.81717707
C        2.36235996      11.14146366      -1.66316668
N        1.80158960      10.36645658      -2.68162183
O        0.41031696       8.73247603      -3.44244186
O        3.20499102      12.00738344      -1.95884032
C       -1.82672014       7.39742386       3.24019183
C       -2.24512472       7.16003208       4.56459604
C       -0.74902421       8.91014201       5.33543299
C       -1.71754652       7.90219042       5.60002365
C       -0.20458377       9.67595561       6.40365024
C        0.73411361      10.65275003       6.14674672
C        1.15751152      10.89588697       4.82501723
C       -2.16092107       7.64893311       6.99279977
C       -0.64751065       9.42327918       7.79670153
N       -1.60039649       8.42410156       8.01128266
O       -3.00338953       6.78286537       7.28846213
O       -0.20957838      10.05840545       8.77245409
H        2.48232011      12.01413562       2.87659128
H        3.19844917      12.41165394       0.55647228
H       -1.70753016       7.10387964       0.65190993
H       -0.95391372       7.54546866      -1.64855769
H        2.10017058      10.53691362      -3.62042510
H       -2.28046651       6.77605925       2.45312946
H       -2.99669024       6.37841122       4.77340819
H        1.15480778      11.24548127       6.97804905
H        1.90850607      11.68685076       4.67748305
H       -1.89910370       8.25356954       8.95002973
