80
Dimer: struct; Energy: -4906.06228 eV
C       -1.29972200       1.48833600      -0.03228100
C       -0.45010500       2.63965400       0.01843500
C        0.99654200       2.45238200       0.05441800
C       -0.76903400       0.15867800      -0.04877100
C        0.67752200      -0.02870400      -0.01297900
C        1.52709100       1.12265000       0.03785500
C        2.93347700       0.94084900       0.07277000
C        3.48023700      -0.37253000       0.05696900
C        3.79427800       2.07240500       0.12351100
C        5.26507800       1.88272800       0.16006300
C        1.24802600      -1.29258500      -0.02698300
C        2.64560500      -1.46904700       0.00777700
C        1.86805800       3.52983300       0.10418700
C        3.26457400       3.34539700       0.13880400
C        4.95087500      -0.56291500       0.09346700
N        5.75909100       0.57580800       0.14293500
O        6.06925500       2.83065500       0.20492200
O        5.48910000      -1.68427500       0.08194900
C       -1.02041300       3.90352800       0.03216900
C       -2.41794600       4.08003500      -0.00262400
C       -2.70602800       1.67000700      -0.06716000
C       -3.25245200       2.98347100      -0.05156500
C       -3.56691500       0.53850500      -0.11766500
C       -3.03687800      -0.73433100      -0.13279200
C       -1.64041100      -0.91883000      -0.09829200
C       -4.72314700       3.17392200      -0.08803700
C       -5.03773600       0.72818300      -0.15412500
N       -5.53143900       2.03522700      -0.13722100
O       -5.26133100       4.29529300      -0.07673500
O       -5.84203300      -0.21964700      -0.19870900
H        0.62972700      -2.20233100      -0.06573200
H        3.07286500      -2.48716200      -0.00439800
H        1.49989900       4.56697900       0.11841200
H        3.93550500       4.22152900       0.17822500
H        6.75033500       0.44779700       0.16755800
H       -0.40199700       4.81321100       0.07071000
H       -2.84532000       5.09816700       0.00933800
H       -3.70773700      -1.61056600      -0.17200800
H       -1.27202900      -1.95588300      -0.11238600
H       -6.52266300       2.16338500      -0.16179200
C        2.37888556       5.50337799       2.79983343
C        3.23295380       4.37197770       3.00096802
C        2.64538935       3.10752669       3.43118283
C        0.96450872       5.42818114       3.00905977
C        0.37683913       4.16380388       3.43907366
C        1.23097196       3.03246399       3.64030676
C        0.65999582       1.80310656       4.05846797
C       -0.74347399       1.70816972       4.27158781
C        1.49213491       0.66761715       4.26384645
C        0.89543978      -0.61817874       4.70116773
C       -0.98629726       4.03190241       3.65708121
C       -1.54970928       2.80894049       4.07241866
C        3.42305624       1.97892119       3.64189966
C        2.85237454       0.75940591       4.05732329
C       -1.34080103       0.42273247       4.70885907
N       -0.48695845      -0.66689939       4.89861025
O        1.56902924      -1.64531265       4.89751370
O       -2.55929604       0.27641195       4.91165770
C        4.59598907       4.50363803       2.78275314
C        5.15942584       5.72653580       2.36739328
C        2.94972067       6.73271096       2.38173632
C        4.35314540       6.82726383       2.16850202
C        2.11769084       7.86831759       2.17655866
C        0.75752693       7.77621207       2.38331996
C        0.18678304       6.55673438       2.79862202
C        4.95055501       8.11273891       1.73123647
C        2.71440597       9.15415394       1.73932026
N        4.09680098       9.20249814       1.54173659
O        6.16901809       8.25896789       1.52824021
O        2.04098178      10.18143198       1.54320088
H       -1.67620245       4.87738864       3.51349576
H       -2.63863233       2.73221724       4.23860418
H        4.51333544       1.99575170       3.49215584
H        3.49542180      -0.12382455       4.21764757
H       -0.88927106      -1.53340672       5.19334299
H        5.28577154       3.65801538       2.92617350
H        6.24836756       5.80330900       2.20097152
H        0.11439044       8.65945635       2.22321853
H       -0.90345352       6.53969998       2.94854513
H        4.49925448      10.06895306       1.24704986
