80
Dimer: struct; Energy: -4906.06228 eV
C       -1.29972200       1.48833600      -0.03228100
C       -0.45010500       2.63965400       0.01843500
C        0.99654200       2.45238200       0.05441800
C       -0.76903400       0.15867800      -0.04877100
C        0.67752200      -0.02870400      -0.01297900
C        1.52709100       1.12265000       0.03785500
C        2.93347700       0.94084900       0.07277000
C        3.48023700      -0.37253000       0.05696900
C        3.79427800       2.07240500       0.12351100
C        5.26507800       1.88272800       0.16006300
C        1.24802600      -1.29258500      -0.02698300
C        2.64560500      -1.46904700       0.00777700
C        1.86805800       3.52983300       0.10418700
C        3.26457400       3.34539700       0.13880400
C        4.95087500      -0.56291500       0.09346700
N        5.75909100       0.57580800       0.14293500
O        6.06925500       2.83065500       0.20492200
O        5.48910000      -1.68427500       0.08194900
C       -1.02041300       3.90352800       0.03216900
C       -2.41794600       4.08003500      -0.00262400
C       -2.70602800       1.67000700      -0.06716000
C       -3.25245200       2.98347100      -0.05156500
C       -3.56691500       0.53850500      -0.11766500
C       -3.03687800      -0.73433100      -0.13279200
C       -1.64041100      -0.91883000      -0.09829200
C       -4.72314700       3.17392200      -0.08803700
C       -5.03773600       0.72818300      -0.15412500
N       -5.53143900       2.03522700      -0.13722100
O       -5.26133100       4.29529300      -0.07673500
O       -5.84203300      -0.21964700      -0.19870900
H        0.62972700      -2.20233100      -0.06573200
H        3.07286500      -2.48716200      -0.00439800
H        1.49989900       4.56697900       0.11841200
H        3.93550500       4.22152900       0.17822500
H        6.75033500       0.44779700       0.16755800
H       -0.40199700       4.81321100       0.07071000
H       -2.84532000       5.09816700       0.00933800
H       -3.70773700      -1.61056600      -0.17200800
H       -1.27202900      -1.95588300      -0.11238600
H       -6.52266300       2.16338500      -0.16179200
C        6.14883643       3.56087548       9.97121283
C        7.10535318       4.44986405       9.38407629
C        6.93381013       4.85831402       7.99379045
C        5.02886681       3.06187015       9.23192007
C        4.85712753       3.47037324       7.84175886
C        5.81374184       4.35927339       7.25463605
C        5.64714911       4.75654462       5.90311295
C        4.54058342       4.27163310       5.15175833
C        6.58708769       5.63913160       5.30184124
C        6.41325801       6.05480945       3.88849018
C        3.79179852       3.01924098       7.07715445
C        3.62975036       3.41621270       5.73486983
C        7.82828714       5.71679760       7.37263461
C        7.65960722       6.10923861       6.02987289
C        4.36614335       4.68691508       3.73844087
N        5.31263397       5.55482003       3.18776242
O        7.19984605       6.82313159       3.30690706
O        3.42062989       4.29783076       3.03000262
C        8.17051891       4.90127067      10.14858355
C        8.33258439       4.50436505      11.49084451
C        6.31534016       3.16353724      11.32262554
C        7.42185100       3.64877521      12.07375000
C        5.37558159       2.28076753      11.92391201
C        4.30327587       1.81074051      11.19554769
C        4.13447919       2.20321890       9.85285688
C        7.59636167       3.23348749      13.48712458
C        5.54946457       1.86501242      13.33725339
N        6.65005644       2.36535314      14.03778827
O        8.54176120       3.62275726      14.19559578
O        4.76311491       1.09648818      13.91887854
H        3.03535855       2.33541213       7.49141235
H        2.77190780       3.04152477       5.14923121
H        8.70146114       6.12193842       7.90634176
H        8.38733612       6.79414176       5.56016230
H        5.19532817       5.83487915       2.23520585
H        8.92678646       5.58526761       9.73427146
H        9.19032366       4.87918197      12.07666019
H        3.57557587       1.12565313      11.66510649
H        3.26145012       1.79811044       9.31891846
H        6.76751236       2.08534011      14.99033750
