80
Dimer: struct; Energy: -4906.06228 eV
C       -1.29972200       1.48833600      -0.03228100
C       -0.45010500       2.63965400       0.01843500
C        0.99654200       2.45238200       0.05441800
C       -0.76903400       0.15867800      -0.04877100
C        0.67752200      -0.02870400      -0.01297900
C        1.52709100       1.12265000       0.03785500
C        2.93347700       0.94084900       0.07277000
C        3.48023700      -0.37253000       0.05696900
C        3.79427800       2.07240500       0.12351100
C        5.26507800       1.88272800       0.16006300
C        1.24802600      -1.29258500      -0.02698300
C        2.64560500      -1.46904700       0.00777700
C        1.86805800       3.52983300       0.10418700
C        3.26457400       3.34539700       0.13880400
C        4.95087500      -0.56291500       0.09346700
N        5.75909100       0.57580800       0.14293500
O        6.06925500       2.83065500       0.20492200
O        5.48910000      -1.68427500       0.08194900
C       -1.02041300       3.90352800       0.03216900
C       -2.41794600       4.08003500      -0.00262400
C       -2.70602800       1.67000700      -0.06716000
C       -3.25245200       2.98347100      -0.05156500
C       -3.56691500       0.53850500      -0.11766500
C       -3.03687800      -0.73433100      -0.13279200
C       -1.64041100      -0.91883000      -0.09829200
C       -4.72314700       3.17392200      -0.08803700
C       -5.03773600       0.72818300      -0.15412500
N       -5.53143900       2.03522700      -0.13722100
O       -5.26133100       4.29529300      -0.07673500
O       -5.84203300      -0.21964700      -0.19870900
H        0.62972700      -2.20233100      -0.06573200
H        3.07286500      -2.48716200      -0.00439800
H        1.49989900       4.56697900       0.11841200
H        3.93550500       4.22152900       0.17822500
H        6.75033500       0.44779700       0.16755800
H       -0.40199700       4.81321100       0.07071000
H       -2.84532000       5.09816700       0.00933800
H       -3.70773700      -1.61056600      -0.17200800
H       -1.27202900      -1.95588300      -0.11238600
H       -6.52266300       2.16338500      -0.16179200
C        5.03579271       7.19406560       5.20501494
C        5.10125293       5.78435306       4.96339579
C        5.94041770       4.95580655       5.82273640
C        5.77080777       7.81296423       6.26643352
C        6.60981611       6.98453926       7.12590686
C        6.67533078       5.57484497       6.88416844
C        7.49099669       4.76916004       7.71948464
C        8.22900352       5.36540190       8.77967430
C        7.56928759       3.36646428       7.49523667
C        8.42218044       2.52355116       8.36852774
C        7.34376202       7.52870373       8.16911084
C        8.15286960       6.72498618       8.99673224
C        6.04278554       3.58555624       5.63604773
C        6.85408250       2.78839195       6.46779183
C        9.08202378       4.52311158       9.65332077
N        9.12971019       3.15027267       9.39760690
O        8.53233414       1.29304330       8.22363074
O        9.75040368       4.98451979      10.59546611
C        4.36719986       5.24003370       3.92046730
C        3.55807414       6.04368386       3.09286488
C        4.22024244       7.99979619       4.36979433
C        3.48221751       7.40324480       3.30986240
C        4.14207201       9.40253496       4.59381949
C        4.85752211       9.98028708       5.62124986
C        5.66872514       9.18318950       6.45307634
C        2.62916462       8.24552762       2.43613131
C        3.28923972      10.24547118       3.72045982
N        2.58165053       9.61842703       2.69161310
O        1.96063350       7.78406095       1.49413486
O        3.17920404      11.47601741       3.86506694
H        7.32036181       8.60720156       8.38757776
H        8.72677941       7.18490138       9.82036021
H        5.49408214       3.07225942       4.83176782
H        6.91708778       1.69936352       6.29645266
H        9.70457136       2.58232215       9.98627031
H        4.39052060       4.16148165       3.70222768
H        2.98393355       5.58381003       2.26929762
H        4.79475048      11.06936461       5.79256045
H        6.21761218       9.69628241       7.25734094
H        2.00678769      10.18626171       2.10284343
