80
Dimer: struct; Energy: -4906.06228 eV
C       -1.29972200       1.48833600      -0.03228100
C       -0.45010500       2.63965400       0.01843500
C        0.99654200       2.45238200       0.05441800
C       -0.76903400       0.15867800      -0.04877100
C        0.67752200      -0.02870400      -0.01297900
C        1.52709100       1.12265000       0.03785500
C        2.93347700       0.94084900       0.07277000
C        3.48023700      -0.37253000       0.05696900
C        3.79427800       2.07240500       0.12351100
C        5.26507800       1.88272800       0.16006300
C        1.24802600      -1.29258500      -0.02698300
C        2.64560500      -1.46904700       0.00777700
C        1.86805800       3.52983300       0.10418700
C        3.26457400       3.34539700       0.13880400
C        4.95087500      -0.56291500       0.09346700
N        5.75909100       0.57580800       0.14293500
O        6.06925500       2.83065500       0.20492200
O        5.48910000      -1.68427500       0.08194900
C       -1.02041300       3.90352800       0.03216900
C       -2.41794600       4.08003500      -0.00262400
C       -2.70602800       1.67000700      -0.06716000
C       -3.25245200       2.98347100      -0.05156500
C       -3.56691500       0.53850500      -0.11766500
C       -3.03687800      -0.73433100      -0.13279200
C       -1.64041100      -0.91883000      -0.09829200
C       -4.72314700       3.17392200      -0.08803700
C       -5.03773600       0.72818300      -0.15412500
N       -5.53143900       2.03522700      -0.13722100
O       -5.26133100       4.29529300      -0.07673500
O       -5.84203300      -0.21964700      -0.19870900
H        0.62972700      -2.20233100      -0.06573200
H        3.07286500      -2.48716200      -0.00439800
H        1.49989900       4.56697900       0.11841200
H        3.93550500       4.22152900       0.17822500
H        6.75033500       0.44779700       0.16755800
H       -0.40199700       4.81321100       0.07071000
H       -2.84532000       5.09816700       0.00933800
H       -3.70773700      -1.61056600      -0.17200800
H       -1.27202900      -1.95588300      -0.11238600
H       -6.52266300       2.16338500      -0.16179200
C       10.71834689       4.55253603       2.67049609
C       10.05871811       3.38070216       3.16207473
C       10.85642133       2.31859837       3.76602689
C       12.13877868       4.71087728       2.75531138
C       12.93652340       3.64897962       3.35937600
C       12.27685251       2.47711297       3.85083350
C       13.05211671       1.44448930       4.43806942
C       14.46497678       1.58311892       4.53171138
C       12.41505171       0.27232021       4.93217445
C       13.22542329      -0.80780725       5.54633129
C       14.31545320       3.74734580       3.46865926
C       15.08210234       2.71937958       4.05270437
C       10.27241593       1.16147036       4.25888610
C       11.04574085       0.13777496       4.84154227
C       15.27590798       0.50344243       5.14575043
N       14.60952751      -0.63028830       5.61791774
O       12.72793096      -1.85543116       5.99606911
O       16.51330806       0.56537445       5.25653181
C        8.67985441       3.28231209       3.05311770
C        7.91318178       4.31023882       2.46912844
C        9.94323723       5.58513583       2.08324817
C        8.53042733       5.44630475       1.98995182
C       10.58023847       6.75723921       1.58890309
C       11.94956906       6.89138231       1.67956114
C       12.72291840       5.86780608       2.26228984
C        7.71941469       6.52598551       1.37587241
C        9.76986544       7.83733980       0.97465579
N        8.38576350       7.65963144       0.90342399
O        6.48200246       6.46411736       1.26530134
O       10.26724435       8.88488807       0.52463363
H       14.85977295       4.63144291       3.10325371
H       16.17882101       2.82415153       4.12678871
H        9.18441779       1.00173505       4.21241137
H       10.55441314      -0.77331433       5.22601995
H       15.15583543      -1.35815821       6.03181485
H        8.13562251       2.39824739       3.41875162
H        6.81637874       4.20564732       2.39518184
H       12.44103933       7.80236395       1.29492250
H       13.81094188       6.02726773       2.30876295
H        7.83933726       8.38739935       0.48950921
