80
Dimer: struct; Energy: -4906.06228 eV
C       -1.29972200       1.48833600      -0.03228100
C       -0.45010500       2.63965400       0.01843500
C        0.99654200       2.45238200       0.05441800
C       -0.76903400       0.15867800      -0.04877100
C        0.67752200      -0.02870400      -0.01297900
C        1.52709100       1.12265000       0.03785500
C        2.93347700       0.94084900       0.07277000
C        3.48023700      -0.37253000       0.05696900
C        3.79427800       2.07240500       0.12351100
C        5.26507800       1.88272800       0.16006300
C        1.24802600      -1.29258500      -0.02698300
C        2.64560500      -1.46904700       0.00777700
C        1.86805800       3.52983300       0.10418700
C        3.26457400       3.34539700       0.13880400
C        4.95087500      -0.56291500       0.09346700
N        5.75909100       0.57580800       0.14293500
O        6.06925500       2.83065500       0.20492200
O        5.48910000      -1.68427500       0.08194900
C       -1.02041300       3.90352800       0.03216900
C       -2.41794600       4.08003500      -0.00262400
C       -2.70602800       1.67000700      -0.06716000
C       -3.25245200       2.98347100      -0.05156500
C       -3.56691500       0.53850500      -0.11766500
C       -3.03687800      -0.73433100      -0.13279200
C       -1.64041100      -0.91883000      -0.09829200
C       -4.72314700       3.17392200      -0.08803700
C       -5.03773600       0.72818300      -0.15412500
N       -5.53143900       2.03522700      -0.13722100
O       -5.26133100       4.29529300      -0.07673500
O       -5.84203300      -0.21964700      -0.19870900
H        0.62972700      -2.20233100      -0.06573200
H        3.07286500      -2.48716200      -0.00439800
H        1.49989900       4.56697900       0.11841200
H        3.93550500       4.22152900       0.17822500
H        6.75033500       0.44779700       0.16755800
H       -0.40199700       4.81321100       0.07071000
H       -2.84532000       5.09816700       0.00933800
H       -3.70773700      -1.61056600      -0.17200800
H       -1.27202900      -1.95588300      -0.11238600
H       -6.52266300       2.16338500      -0.16179200
C       10.33399434       4.75074340       2.31445468
C       10.44042610       3.52080265       1.58928412
C       11.70679044       3.18306464       0.94787356
C       11.43571177       5.65810309       2.42763220
C       12.70211134       5.32040476       1.78645412
C       12.80845202       4.09050260       1.06119558
C       14.03946265       3.76192038       0.43762620
C       15.14601312       4.65045033       0.53872598
C       14.16488775       2.54442431      -0.28759366
C       15.45204445       2.20043598      -0.93987097
C       13.80289126       6.16038270       1.86252467
C       15.02408071       5.83040738       1.24172940
C       11.86823286       2.00618273       0.23246943
C       13.09256922       1.68312203      -0.38567631
C       16.43340578       4.30708168      -0.11325008
N       16.51260969       3.10157960      -0.81527696
O       15.62438747       1.15234229      -1.58723183
O       17.43601570       5.04146818      -0.06112628
C        9.33988747       2.68064372       1.51335633
C        8.11872269       3.01055120       2.13414726
C        9.10310362       5.07942087       2.93799025
C        7.99684474       4.19061247       2.83689134
C        8.97751353       6.29700550       3.66303422
C       10.04997903       7.15813402       3.76078372
C       11.27434030       6.83509163       3.14277620
C        6.70936508       4.53395786       3.48885427
C        7.69031274       6.64104055       4.31524239
N        6.63000355       5.73958748       4.19066643
O        5.70684521       3.79945353       3.43689315
O        7.51774429       7.68921618       4.96239856
H       13.76180424       7.11418526       2.41025222
H       15.88463990       6.51801521       1.31848122
H       11.04594097       1.28293468       0.12218108
H       13.19327335       0.73894770      -0.94932800
H       17.38017965       2.86989190      -1.25482326
H        9.38116130       1.72676139       0.96576899
H        7.25812290       2.32287635       2.05762460
H        9.94932632       8.10245785       4.32425423
H       12.09673064       7.55824148       3.25282747
H        5.76236174       5.97116911       4.63012162
