80
Dimer: struct; Energy: -4906.06228 eV
C       -1.29972200       1.48833600      -0.03228100
C       -0.45010500       2.63965400       0.01843500
C        0.99654200       2.45238200       0.05441800
C       -0.76903400       0.15867800      -0.04877100
C        0.67752200      -0.02870400      -0.01297900
C        1.52709100       1.12265000       0.03785500
C        2.93347700       0.94084900       0.07277000
C        3.48023700      -0.37253000       0.05696900
C        3.79427800       2.07240500       0.12351100
C        5.26507800       1.88272800       0.16006300
C        1.24802600      -1.29258500      -0.02698300
C        2.64560500      -1.46904700       0.00777700
C        1.86805800       3.52983300       0.10418700
C        3.26457400       3.34539700       0.13880400
C        4.95087500      -0.56291500       0.09346700
N        5.75909100       0.57580800       0.14293500
O        6.06925500       2.83065500       0.20492200
O        5.48910000      -1.68427500       0.08194900
C       -1.02041300       3.90352800       0.03216900
C       -2.41794600       4.08003500      -0.00262400
C       -2.70602800       1.67000700      -0.06716000
C       -3.25245200       2.98347100      -0.05156500
C       -3.56691500       0.53850500      -0.11766500
C       -3.03687800      -0.73433100      -0.13279200
C       -1.64041100      -0.91883000      -0.09829200
C       -4.72314700       3.17392200      -0.08803700
C       -5.03773600       0.72818300      -0.15412500
N       -5.53143900       2.03522700      -0.13722100
O       -5.26133100       4.29529300      -0.07673500
O       -5.84203300      -0.21964700      -0.19870900
H        0.62972700      -2.20233100      -0.06573200
H        3.07286500      -2.48716200      -0.00439800
H        1.49989900       4.56697900       0.11841200
H        3.93550500       4.22152900       0.17822500
H        6.75033500       0.44779700       0.16755800
H       -0.40199700       4.81321100       0.07071000
H       -2.84532000       5.09816700       0.00933800
H       -3.70773700      -1.61056600      -0.17200800
H       -1.27202900      -1.95588300      -0.11238600
H       -6.52266300       2.16338500      -0.16179200
C        6.31275758       8.24692919       1.43073393
C        5.37853483       7.20707625       1.74039186
C        3.95205988       7.51413060       1.74671239
C        5.88589300       9.57939748       1.12707797
C        4.45951224       9.88650975       1.13318723
C        3.52533764       8.84664368       1.44296777
C        2.13854057       9.14488601       1.44910437
C        1.69442045      10.46297370       1.14983407
C        1.19469488       8.12516259       1.75454087
C       -0.25565274       8.43663471       1.76109447
C        3.98795830      11.15877340       0.84674665
C        2.60952344      11.45107688       0.85382970
C        3.00167993       6.54768040       2.03940627
C        1.62491547       6.84762152       2.04458898
C        0.24428745      10.77510947       1.15617807
N       -0.64773330       9.74388253       1.46149796
O       -1.12906107       7.58962796       2.01996902
O       -0.20601558      11.90669883       0.90319633
C        5.84988692       5.93477633       2.02656918
C        7.22827160       5.64242561       2.01946422
C        7.69948586       7.94882762       1.42460457
C        8.14325918       6.63063948       1.72369546
C        8.64341926       8.96854308       1.11940943
C        8.21285909      10.24599562       0.82956038
C        6.83614527      10.54596850       0.83461469
C        9.59344458       6.31844060       1.71739083
C       10.09379014       8.65708837       1.11294562
N       10.48554633       7.34969615       1.41235350
O       10.04370026       5.18679670       1.97016462
O       10.96731777       9.50405111       0.85435962
H        4.67332141      11.98502473       0.60380822
H        2.26184185      12.47313474       0.62194023
H        3.28904305       5.51234488       2.27798124
H        0.88970350       6.05846660       2.28124817
H       -1.62517998       9.95396987       1.46586465
H        5.16440662       5.10855034       2.26929186
H        7.57605995       4.62029549       2.25114866
H        8.94801259      11.03530129       0.59307916
H        6.54855614      11.58126022       0.59618985
H       11.46296310       7.13947882       1.40807000
