80
Dimer: struct; Energy: -4906.06228 eV
C       -1.29972200       1.48833600      -0.03228100
C       -0.45010500       2.63965400       0.01843500
C        0.99654200       2.45238200       0.05441800
C       -0.76903400       0.15867800      -0.04877100
C        0.67752200      -0.02870400      -0.01297900
C        1.52709100       1.12265000       0.03785500
C        2.93347700       0.94084900       0.07277000
C        3.48023700      -0.37253000       0.05696900
C        3.79427800       2.07240500       0.12351100
C        5.26507800       1.88272800       0.16006300
C        1.24802600      -1.29258500      -0.02698300
C        2.64560500      -1.46904700       0.00777700
C        1.86805800       3.52983300       0.10418700
C        3.26457400       3.34539700       0.13880400
C        4.95087500      -0.56291500       0.09346700
N        5.75909100       0.57580800       0.14293500
O        6.06925500       2.83065500       0.20492200
O        5.48910000      -1.68427500       0.08194900
C       -1.02041300       3.90352800       0.03216900
C       -2.41794600       4.08003500      -0.00262400
C       -2.70602800       1.67000700      -0.06716000
C       -3.25245200       2.98347100      -0.05156500
C       -3.56691500       0.53850500      -0.11766500
C       -3.03687800      -0.73433100      -0.13279200
C       -1.64041100      -0.91883000      -0.09829200
C       -4.72314700       3.17392200      -0.08803700
C       -5.03773600       0.72818300      -0.15412500
N       -5.53143900       2.03522700      -0.13722100
O       -5.26133100       4.29529300      -0.07673500
O       -5.84203300      -0.21964700      -0.19870900
H        0.62972700      -2.20233100      -0.06573200
H        3.07286500      -2.48716200      -0.00439800
H        1.49989900       4.56697900       0.11841200
H        3.93550500       4.22152900       0.17822500
H        6.75033500       0.44779700       0.16755800
H       -0.40199700       4.81321100       0.07071000
H       -2.84532000       5.09816700       0.00933800
H       -3.70773700      -1.61056600      -0.17200800
H       -1.27202900      -1.95588300      -0.11238600
H       -6.52266300       2.16338500      -0.16179200
C        2.00326694       7.05882780       7.16287874
C        2.10893188       8.28236006       7.89892088
C        2.09740041       8.23585876       9.35729593
C        1.88674414       5.79125456       7.81829661
C        1.87538715       5.74461405       9.27658774
C        1.98093744       6.96819101      10.01258108
C        1.96982215       6.92323248      11.43034249
C        1.85494829       5.67333367      12.10020630
C        2.07359018       8.12826318      12.17941204
C        2.06197887       8.08169559      13.66206598
C        1.76503692       4.54608467       9.96536656
C        1.75440033       4.50556937      11.37384784
C        2.19638558       9.38826409      10.12220221
C        2.18496117       9.33974709      11.53038810
C        1.84330594       5.62604458      13.58276587
N        1.94749886       6.83312539      14.27879030
O        2.14917020       9.09917161      14.37229043
O        1.74550154       4.56575293      14.22579229
C        2.21955561       9.48086973       7.21033226
C        2.23023147       9.52143002       5.80189176
C        2.01433436       7.10366934       5.74521016
C        2.12943288       8.35365980       5.07566834
C        1.91033533       5.89871116       4.99605467
C        1.79882743       4.68743158       5.64539843
C        1.78751060       4.63883428       7.05353921
C        2.14105505       8.40101185       3.59304625
C        1.92185472       5.94528836       3.51338163
N        2.03658085       7.19398429       2.89694932
O        2.23907649       9.46129338       2.95005515
O        1.83439742       4.92792870       2.80303407
H        1.68188602       3.58436397       9.43658292
H        1.66538527       3.53698991      11.89652139
H        2.28735359      10.38139902       9.65655958
H        2.26531191      10.27319661      12.11478990
H        1.93966447       6.80156349      15.27804014
H        2.30290966      10.44251511       7.73923412
H        2.31945642      10.48999122       5.27909877
H        1.71826377       3.75391045       5.06108238
H        1.69642993       3.64582712       7.51939752
H        2.04438074       7.22569942       1.89770634
