80
Dimer: struct; Energy: -4906.06228 eV
C       -1.29972200       1.48833600      -0.03228100
C       -0.45010500       2.63965400       0.01843500
C        0.99654200       2.45238200       0.05441800
C       -0.76903400       0.15867800      -0.04877100
C        0.67752200      -0.02870400      -0.01297900
C        1.52709100       1.12265000       0.03785500
C        2.93347700       0.94084900       0.07277000
C        3.48023700      -0.37253000       0.05696900
C        3.79427800       2.07240500       0.12351100
C        5.26507800       1.88272800       0.16006300
C        1.24802600      -1.29258500      -0.02698300
C        2.64560500      -1.46904700       0.00777700
C        1.86805800       3.52983300       0.10418700
C        3.26457400       3.34539700       0.13880400
C        4.95087500      -0.56291500       0.09346700
N        5.75909100       0.57580800       0.14293500
O        6.06925500       2.83065500       0.20492200
O        5.48910000      -1.68427500       0.08194900
C       -1.02041300       3.90352800       0.03216900
C       -2.41794600       4.08003500      -0.00262400
C       -2.70602800       1.67000700      -0.06716000
C       -3.25245200       2.98347100      -0.05156500
C       -3.56691500       0.53850500      -0.11766500
C       -3.03687800      -0.73433100      -0.13279200
C       -1.64041100      -0.91883000      -0.09829200
C       -4.72314700       3.17392200      -0.08803700
C       -5.03773600       0.72818300      -0.15412500
N       -5.53143900       2.03522700      -0.13722100
O       -5.26133100       4.29529300      -0.07673500
O       -5.84203300      -0.21964700      -0.19870900
H        0.62972700      -2.20233100      -0.06573200
H        3.07286500      -2.48716200      -0.00439800
H        1.49989900       4.56697900       0.11841200
H        3.93550500       4.22152900       0.17822500
H        6.75033500       0.44779700       0.16755800
H       -0.40199700       4.81321100       0.07071000
H       -2.84532000       5.09816700       0.00933800
H       -3.70773700      -1.61056600      -0.17200800
H       -1.27202900      -1.95588300      -0.11238600
H       -6.52266300       2.16338500      -0.16179200
C        4.28820165      13.14875205       4.55401077
C        4.15789531      12.32306596       5.71642939
C        3.70542152      10.94467252       5.56005774
C        3.98693075      12.65922096       3.24271857
C        3.53464957      11.28086520       3.08621149
C        3.40424846      10.45525671       4.24868032
C        2.96446436       9.11520164       4.09690880
C        2.66027270       8.61008323       2.80211793
C        2.82852532       8.27914178       5.23992957
C        2.36862101       6.87771239       5.08165846
C        3.22870166      10.75244247       1.84112860
C        2.79215583       9.42071573       1.69448002
C        3.56047249      10.09907783       6.64949666
C        3.12331790       8.76848789       6.49490628
C        2.20037212       7.20880859       2.64313516
N        2.08089365       6.42285535       3.79220115
O        2.22988331       6.09805217       6.04090835
O        1.91933262       6.70938207       1.53911659
C        4.46404638      12.85122680       6.96147356
C        4.90061698      14.18289943       7.10816324
C        4.72791278      14.48874244       4.70565946
C        5.03222040      14.99347992       6.00051352
C        4.86365723      15.32494823       3.56272145
C        4.56863595      14.83532393       2.30792664
C        4.13159808      13.50475050       2.15325776
C        5.49212026      16.39481521       6.15956413
C        5.32347967      16.72642284       3.72100516
N        5.61135229      17.18091831       5.01056153
O        5.77335597      16.89414329       7.26356622
O        5.46200043      17.50627148       2.76188515
H        3.31595942      11.35420458       0.92368576
H        2.55534922       9.02588549       0.69084204
H        3.78170249      10.43724128       7.67327300
H        3.01672865       8.11691792       7.38000797
H        1.77092917       5.47836397       3.68535621
H        4.37694690      12.24929673       7.87882889
H        5.13765991      14.57778106       8.11178844
H        4.67499678      15.48688239       1.42275072
H        3.91019453      13.16640637       1.12959445
H        5.92128082      18.12540177       5.11755932
