80
Dimer: struct; Energy: -4906.06228 eV
C       -1.29972200       1.48833600      -0.03228100
C       -0.45010500       2.63965400       0.01843500
C        0.99654200       2.45238200       0.05441800
C       -0.76903400       0.15867800      -0.04877100
C        0.67752200      -0.02870400      -0.01297900
C        1.52709100       1.12265000       0.03785500
C        2.93347700       0.94084900       0.07277000
C        3.48023700      -0.37253000       0.05696900
C        3.79427800       2.07240500       0.12351100
C        5.26507800       1.88272800       0.16006300
C        1.24802600      -1.29258500      -0.02698300
C        2.64560500      -1.46904700       0.00777700
C        1.86805800       3.52983300       0.10418700
C        3.26457400       3.34539700       0.13880400
C        4.95087500      -0.56291500       0.09346700
N        5.75909100       0.57580800       0.14293500
O        6.06925500       2.83065500       0.20492200
O        5.48910000      -1.68427500       0.08194900
C       -1.02041300       3.90352800       0.03216900
C       -2.41794600       4.08003500      -0.00262400
C       -2.70602800       1.67000700      -0.06716000
C       -3.25245200       2.98347100      -0.05156500
C       -3.56691500       0.53850500      -0.11766500
C       -3.03687800      -0.73433100      -0.13279200
C       -1.64041100      -0.91883000      -0.09829200
C       -4.72314700       3.17392200      -0.08803700
C       -5.03773600       0.72818300      -0.15412500
N       -5.53143900       2.03522700      -0.13722100
O       -5.26133100       4.29529300      -0.07673500
O       -5.84203300      -0.21964700      -0.19870900
H        0.62972700      -2.20233100      -0.06573200
H        3.07286500      -2.48716200      -0.00439800
H        1.49989900       4.56697900       0.11841200
H        3.93550500       4.22152900       0.17822500
H        6.75033500       0.44779700       0.16755800
H       -0.40199700       4.81321100       0.07071000
H       -2.84532000       5.09816700       0.00933800
H       -3.70773700      -1.61056600      -0.17200800
H       -1.27202900      -1.95588300      -0.11238600
H       -6.52266300       2.16338500      -0.16179200
C        1.73837047      11.57447010       4.77401313
C        1.47858408      12.53763292       3.74698699
C        1.08816844      12.07192119       2.42039687
C        1.62552753      10.16729137       4.53525267
C        1.23496226       9.70149200       3.20882624
C        0.97530102      10.66469791       2.18180237
C        0.59567538      10.21220222       0.89210308
C        0.47791638       8.81785247       0.63503854
C        0.33348155      11.15380567      -0.14163254
C       -0.06351626      10.68102671      -1.49049830
C        1.10949890       8.35104407       2.91966292
C        0.73211573       7.90550096       1.63722483
C        0.82435551      12.95838667       1.38719822
C        0.44752556      12.50523155       0.10730699
C        0.08094859       8.34441136      -0.71352542
N       -0.16703722       9.30329561      -1.69911880
O       -0.30580672      11.45362819      -2.43477626
O       -0.03910613       7.13999549      -1.00029419
C        1.60373176      13.88803944       4.03605036
C        1.98106760      14.33361817       5.31844695
C        2.11801250      12.02682224       6.06365142
C        2.23547057      13.42119269       6.32044843
C        2.38045448      11.08528534       7.09738565
C        2.26646162       9.73394544       6.84805526
C        1.88953779       9.28073964       5.56825718
C        2.63247715      13.89470928       7.66904525
C        2.77754620      11.55806815       8.44624297
N        2.88075505      12.93586351       8.65461828
O        2.75231323      15.09913084       7.95583907
O        3.02013015      10.78558150       9.39053133
H        1.30014586       7.57963152       3.68124635
H        0.63987651       6.82395213       1.43473642
H        0.89995599      14.04707082       1.53025979
H        0.24331430      13.23342330      -0.69727007
H       -0.43459579       8.98449194      -2.60814817
H        1.41285446      14.65937019       3.27443258
H        2.07313721      15.41520869       5.52110313
H        2.47085145       9.00563594       7.65252249
H        1.81399100       8.19210155       5.42493002
H        3.14835035      13.25480678       9.56358538
