80
Dimer: struct; Energy: -4906.06228 eV
C       -1.29972200       1.48833600      -0.03228100
C       -0.45010500       2.63965400       0.01843500
C        0.99654200       2.45238200       0.05441800
C       -0.76903400       0.15867800      -0.04877100
C        0.67752200      -0.02870400      -0.01297900
C        1.52709100       1.12265000       0.03785500
C        2.93347700       0.94084900       0.07277000
C        3.48023700      -0.37253000       0.05696900
C        3.79427800       2.07240500       0.12351100
C        5.26507800       1.88272800       0.16006300
C        1.24802600      -1.29258500      -0.02698300
C        2.64560500      -1.46904700       0.00777700
C        1.86805800       3.52983300       0.10418700
C        3.26457400       3.34539700       0.13880400
C        4.95087500      -0.56291500       0.09346700
N        5.75909100       0.57580800       0.14293500
O        6.06925500       2.83065500       0.20492200
O        5.48910000      -1.68427500       0.08194900
C       -1.02041300       3.90352800       0.03216900
C       -2.41794600       4.08003500      -0.00262400
C       -2.70602800       1.67000700      -0.06716000
C       -3.25245200       2.98347100      -0.05156500
C       -3.56691500       0.53850500      -0.11766500
C       -3.03687800      -0.73433100      -0.13279200
C       -1.64041100      -0.91883000      -0.09829200
C       -4.72314700       3.17392200      -0.08803700
C       -5.03773600       0.72818300      -0.15412500
N       -5.53143900       2.03522700      -0.13722100
O       -5.26133100       4.29529300      -0.07673500
O       -5.84203300      -0.21964700      -0.19870900
H        0.62972700      -2.20233100      -0.06573200
H        3.07286500      -2.48716200      -0.00439800
H        1.49989900       4.56697900       0.11841200
H        3.93550500       4.22152900       0.17822500
H        6.75033500       0.44779700       0.16755800
H       -0.40199700       4.81321100       0.07071000
H       -2.84532000       5.09816700       0.00933800
H       -3.70773700      -1.61056600      -0.17200800
H       -1.27202900      -1.95588300      -0.11238600
H       -6.52266300       2.16338500      -0.16179200
C        3.13160209       8.70387098       8.78334657
C        3.75315300       8.72190218       7.49365527
C        3.64018492       7.54715834       6.63553625
C        2.40235355       7.56520527       9.25401528
C        2.28916811       6.39053745       8.39595823
C        2.91083976       6.40857942       7.10632012
C        2.80109519       5.26670235       6.27189510
C        2.08048444       4.12534411       6.72154171
C        3.41193439       5.26530514       4.98704277
C        3.29743240       4.07137148       4.11412939
C        1.59535243       5.25941617       8.79876163
C        1.48855635       4.12706066       7.96693248
C        4.22143403       7.50747070       5.37716742
C        4.11035966       6.37139746       4.55104878
C        1.96556957       2.93114530       5.84916653
N        2.58073387       2.97264140       4.59529205
O        3.80855137       4.00876976       2.98182334
O        1.34976211       1.90386980       6.18495409
C        4.44672931       9.85297898       7.09062364
C        4.55351954      10.98533914       7.92238086
C        3.24130647       9.84560197       9.61781211
C        3.96177625      10.98684190       9.16780677
C        2.63069899       9.84700317      10.90277534
C        1.93248643       8.74069417      11.33850365
C        1.82128101       7.60466509      10.51241559
C        4.07674968      12.18111002      10.04018875
C        2.74528039      11.04091783      11.77573604
N        3.46184394      12.13957761      11.29420124
O        4.69237798      13.20844381       9.70428733
O        2.23444995      11.10355806      12.90816334
H        1.10368769       5.20600300       9.78204477
H        0.92990387       3.23977465       8.31318158
H        4.78998422       8.36175762       4.97922302
H        4.58329042       6.36703128       3.55323761
H        2.50346213       2.16789367       4.00710164
H        4.93818045       9.90634982       6.10722430
H        5.11200341      11.87279868       7.57612123
H        1.45967361       8.74487144      12.33640547
H        1.25288411       6.75021900      10.91019657
H        3.53923650      12.94437486      11.88230412
