80
Dimer: struct; Energy: -4906.06228 eV
C       -1.29972200       1.48833600      -0.03228100
C       -0.45010500       2.63965400       0.01843500
C        0.99654200       2.45238200       0.05441800
C       -0.76903400       0.15867800      -0.04877100
C        0.67752200      -0.02870400      -0.01297900
C        1.52709100       1.12265000       0.03785500
C        2.93347700       0.94084900       0.07277000
C        3.48023700      -0.37253000       0.05696900
C        3.79427800       2.07240500       0.12351100
C        5.26507800       1.88272800       0.16006300
C        1.24802600      -1.29258500      -0.02698300
C        2.64560500      -1.46904700       0.00777700
C        1.86805800       3.52983300       0.10418700
C        3.26457400       3.34539700       0.13880400
C        4.95087500      -0.56291500       0.09346700
N        5.75909100       0.57580800       0.14293500
O        6.06925500       2.83065500       0.20492200
O        5.48910000      -1.68427500       0.08194900
C       -1.02041300       3.90352800       0.03216900
C       -2.41794600       4.08003500      -0.00262400
C       -2.70602800       1.67000700      -0.06716000
C       -3.25245200       2.98347100      -0.05156500
C       -3.56691500       0.53850500      -0.11766500
C       -3.03687800      -0.73433100      -0.13279200
C       -1.64041100      -0.91883000      -0.09829200
C       -4.72314700       3.17392200      -0.08803700
C       -5.03773600       0.72818300      -0.15412500
N       -5.53143900       2.03522700      -0.13722100
O       -5.26133100       4.29529300      -0.07673500
O       -5.84203300      -0.21964700      -0.19870900
H        0.62972700      -2.20233100      -0.06573200
H        3.07286500      -2.48716200      -0.00439800
H        1.49989900       4.56697900       0.11841200
H        3.93550500       4.22152900       0.17822500
H        6.75033500       0.44779700       0.16755800
H       -0.40199700       4.81321100       0.07071000
H       -2.84532000       5.09816700       0.00933800
H       -3.70773700      -1.61056600      -0.17200800
H       -1.27202900      -1.95588300      -0.11238600
H       -6.52266300       2.16338500      -0.16179200
C       12.13405164       5.41255266       2.74698300
C       13.38743258       6.10058729       2.67215750
C       14.50988481       5.61827664       3.47004881
C       11.95183852       4.26452102       3.58287403
C       13.07420857       3.78203450       4.38062685
C       14.32753711       4.47017974       4.30585178
C       15.41889082       4.00144766       5.08137067
C       15.25783144       2.86211033       5.91810892
C       16.67227867       4.67175695       5.02073781
C       17.81382314       4.18191999       5.83160280
C       12.95634374       2.67524892       5.20779050
C       14.04285057       2.21266574       5.97661678
C       15.74675302       6.24441564       3.43803753
C       16.82859578       5.77598489       4.20982818
C       16.39891492       2.37174614       6.72917373
N       17.61166504       3.05988029       6.63940296
O       18.93331979       4.72405828       5.82201726
O       16.32116311       1.38228288       7.47896316
C       13.50552597       7.20715515       1.84488556
C       12.41908754       7.66974087       1.07603593
C       11.04269457       5.88118821       1.97158766
C       11.20412873       7.02038099       1.13481476
C        9.78920177       5.21108403       2.03233419
C        9.63319913       4.10699096       2.84345761
C       10.71499932       3.63845410       3.61516466
C       10.06302223       7.51082508       0.32371297
C        8.64761739       5.70098265       1.22152846
N        8.85015137       6.82290291       0.41365017
O       10.14086708       8.50015573      -0.42622551
O        7.52799799       5.15911408       1.23122178
H       12.01038416       2.11908721       5.29309906
H       13.92086555       1.32865362       6.62692419
H       15.92717478       7.12924273       2.80879653
H       17.80276956       6.29395551       4.16508904
H       18.38092533       2.72961361       7.18595607
H       14.45160546       7.76311412       1.75950327
H       12.54103695       8.55366556       0.42550548
H        8.65898648       3.58904844       2.88843237
H       10.53477779       2.75372066       4.24456898
H        8.08096524       7.15330715      -0.13292001
