80
Dimer: struct; Energy: -4906.06228 eV
C       -1.29972200       1.48833600      -0.03228100
C       -0.45010500       2.63965400       0.01843500
C        0.99654200       2.45238200       0.05441800
C       -0.76903400       0.15867800      -0.04877100
C        0.67752200      -0.02870400      -0.01297900
C        1.52709100       1.12265000       0.03785500
C        2.93347700       0.94084900       0.07277000
C        3.48023700      -0.37253000       0.05696900
C        3.79427800       2.07240500       0.12351100
C        5.26507800       1.88272800       0.16006300
C        1.24802600      -1.29258500      -0.02698300
C        2.64560500      -1.46904700       0.00777700
C        1.86805800       3.52983300       0.10418700
C        3.26457400       3.34539700       0.13880400
C        4.95087500      -0.56291500       0.09346700
N        5.75909100       0.57580800       0.14293500
O        6.06925500       2.83065500       0.20492200
O        5.48910000      -1.68427500       0.08194900
C       -1.02041300       3.90352800       0.03216900
C       -2.41794600       4.08003500      -0.00262400
C       -2.70602800       1.67000700      -0.06716000
C       -3.25245200       2.98347100      -0.05156500
C       -3.56691500       0.53850500      -0.11766500
C       -3.03687800      -0.73433100      -0.13279200
C       -1.64041100      -0.91883000      -0.09829200
C       -4.72314700       3.17392200      -0.08803700
C       -5.03773600       0.72818300      -0.15412500
N       -5.53143900       2.03522700      -0.13722100
O       -5.26133100       4.29529300      -0.07673500
O       -5.84203300      -0.21964700      -0.19870900
H        0.62972700      -2.20233100      -0.06573200
H        3.07286500      -2.48716200      -0.00439800
H        1.49989900       4.56697900       0.11841200
H        3.93550500       4.22152900       0.17822500
H        6.75033500       0.44779700       0.16755800
H       -0.40199700       4.81321100       0.07071000
H       -2.84532000       5.09816700       0.00933800
H       -3.70773700      -1.61056600      -0.17200800
H       -1.27202900      -1.95588300      -0.11238600
H       -6.52266300       2.16338500      -0.16179200
C       11.99295938       4.96331712       2.88995843
C       13.23560933       5.50249822       2.42621375
C       14.36022791       5.58976890       3.35183247
C       11.82354268       4.50743101       4.23656822
C       12.94808285       4.59447676       5.16217601
C       14.19067829       5.13377635       4.69840868
C       15.28413667       5.21865112       5.59804043
C       15.13572516       4.77070578       6.94023250
C       16.52698196       5.75158569       5.15612604
C       17.67072281       5.84054746       6.09660929
C       12.84240153       4.16827615       6.47756591
C       13.93096040       4.25421203       7.36819983
C       15.58707133       6.10295438       2.95887746
C       16.67104063       6.18575654       3.85532951
C       16.27901219       4.85934530       7.88118546
N       17.48113719       5.38927138       7.40534505
O       18.78140930       6.29619970       5.77097895
O       16.21207836       4.48475521       9.06544438
C       13.34152340       5.92846252       1.11086059
C       12.25303304       5.84251636       0.22020591
C       10.89949835       4.87843502       1.99048332
C       11.04828715       5.32624881       0.64834518
C        9.65654406       4.34573170       2.43237217
C        9.51279620       3.91179986       3.73326388
C       10.59672521       3.99446640       4.62970929
C        9.90497606       5.23765268      -0.29268407
C        8.51276193       4.25685382       1.49190174
N        8.70272581       4.70799370       0.18316993
O        9.97200607       5.61204998      -1.47698821
O        7.40194764       3.80148181       1.81746443
H       11.90493773       3.74794041       6.87242337
H       13.81878107       3.90732772       8.41047838
H       15.75752265       6.46368319       1.93309176
H       17.63705263       6.59889178       3.51555048
H       18.25187952       5.44915156       8.03932327
H       14.27911086       6.34859230       0.71605983
H       12.36517969       6.18919977      -0.82220387
H        8.54674329       3.49882316       4.07321901
H       10.42647148       3.63391184       5.65557328
H        7.93205553       4.64821708      -0.45090207
