80
Dimer: struct; Energy: -4906.06228 eV
C       -1.29972200       1.48833600      -0.03228100
C       -0.45010500       2.63965400       0.01843500
C        0.99654200       2.45238200       0.05441800
C       -0.76903400       0.15867800      -0.04877100
C        0.67752200      -0.02870400      -0.01297900
C        1.52709100       1.12265000       0.03785500
C        2.93347700       0.94084900       0.07277000
C        3.48023700      -0.37253000       0.05696900
C        3.79427800       2.07240500       0.12351100
C        5.26507800       1.88272800       0.16006300
C        1.24802600      -1.29258500      -0.02698300
C        2.64560500      -1.46904700       0.00777700
C        1.86805800       3.52983300       0.10418700
C        3.26457400       3.34539700       0.13880400
C        4.95087500      -0.56291500       0.09346700
N        5.75909100       0.57580800       0.14293500
O        6.06925500       2.83065500       0.20492200
O        5.48910000      -1.68427500       0.08194900
C       -1.02041300       3.90352800       0.03216900
C       -2.41794600       4.08003500      -0.00262400
C       -2.70602800       1.67000700      -0.06716000
C       -3.25245200       2.98347100      -0.05156500
C       -3.56691500       0.53850500      -0.11766500
C       -3.03687800      -0.73433100      -0.13279200
C       -1.64041100      -0.91883000      -0.09829200
C       -4.72314700       3.17392200      -0.08803700
C       -5.03773600       0.72818300      -0.15412500
N       -5.53143900       2.03522700      -0.13722100
O       -5.26133100       4.29529300      -0.07673500
O       -5.84203300      -0.21964700      -0.19870900
H        0.62972700      -2.20233100      -0.06573200
H        3.07286500      -2.48716200      -0.00439800
H        1.49989900       4.56697900       0.11841200
H        3.93550500       4.22152900       0.17822500
H        6.75033500       0.44779700       0.16755800
H       -0.40199700       4.81321100       0.07071000
H       -2.84532000       5.09816700       0.00933800
H       -3.70773700      -1.61056600      -0.17200800
H       -1.27202900      -1.95588300      -0.11238600
H       -6.52266300       2.16338500      -0.16179200
C        4.59765324       4.58588820       4.92911106
C        5.86276122       4.83061597       5.55326203
C        6.13647799       6.15267428       6.10679079
C        3.59396400       5.60241038       4.83328505
C        3.86748138       6.92438038       5.38691029
C        5.13265451       7.16908774       6.01094785
C        5.39895094       8.45422111       6.54919563
C        4.41432019       9.47764847       6.46399422
C        6.65021140       8.71694386       7.17313153
C        6.92911019      10.06075603       7.73611499
C        2.93336236       7.94733649       5.32328206
C        3.20165487       9.22264078       5.85918528
C        7.34360697       6.44741251       6.72232857
C        7.60462606       7.72518728       7.25583824
C        4.69253670      10.82160991       7.02677118
N        5.93417343      11.03613281       7.63064899
O        8.00246180      10.35223420       8.29310275
O        3.87345607      11.75676039       6.98355592
C        6.79682152       3.80774759       5.61720684
C        6.52856796       2.53245312       5.08136375
C        4.33128216       3.30088956       4.39083380
C        5.31600064       2.27764905       4.47638154
C        3.08013934       3.03814220       3.76667082
C        2.12602422       4.03016566       3.68400686
C        2.38692693       5.30789020       4.21757971
C        5.03783526       0.93361872       3.91357423
C        2.80127269       1.69433969       3.20359916
N        3.79631607       0.71910544       3.30942567
O        5.85684957      -0.00156723       3.95699638
O        1.72808190       1.40280139       2.64634692
H        1.94968931       7.79949670       4.85215187
H        2.43940686      10.01891982       5.79456982
H        8.14038035       5.69388258       6.81592370
H        8.57478827       7.93242184       7.74075970
H        6.12197791      11.94186659       8.01003478
H        7.78038954       3.95565073       6.08855122
H        7.29071093       1.73600508       5.14611726
H        1.15587709       3.82309881       3.19891374
H        1.59035227       6.06160980       4.12399316
H        3.60866586      -0.18665854       2.93004164
