80
Dimer: struct; Energy: -4906.06228 eV
C       -1.29972200       1.48833600      -0.03228100
C       -0.45010500       2.63965400       0.01843500
C        0.99654200       2.45238200       0.05441800
C       -0.76903400       0.15867800      -0.04877100
C        0.67752200      -0.02870400      -0.01297900
C        1.52709100       1.12265000       0.03785500
C        2.93347700       0.94084900       0.07277000
C        3.48023700      -0.37253000       0.05696900
C        3.79427800       2.07240500       0.12351100
C        5.26507800       1.88272800       0.16006300
C        1.24802600      -1.29258500      -0.02698300
C        2.64560500      -1.46904700       0.00777700
C        1.86805800       3.52983300       0.10418700
C        3.26457400       3.34539700       0.13880400
C        4.95087500      -0.56291500       0.09346700
N        5.75909100       0.57580800       0.14293500
O        6.06925500       2.83065500       0.20492200
O        5.48910000      -1.68427500       0.08194900
C       -1.02041300       3.90352800       0.03216900
C       -2.41794600       4.08003500      -0.00262400
C       -2.70602800       1.67000700      -0.06716000
C       -3.25245200       2.98347100      -0.05156500
C       -3.56691500       0.53850500      -0.11766500
C       -3.03687800      -0.73433100      -0.13279200
C       -1.64041100      -0.91883000      -0.09829200
C       -4.72314700       3.17392200      -0.08803700
C       -5.03773600       0.72818300      -0.15412500
N       -5.53143900       2.03522700      -0.13722100
O       -5.26133100       4.29529300      -0.07673500
O       -5.84203300      -0.21964700      -0.19870900
H        0.62972700      -2.20233100      -0.06573200
H        3.07286500      -2.48716200      -0.00439800
H        1.49989900       4.56697900       0.11841200
H        3.93550500       4.22152900       0.17822500
H        6.75033500       0.44779700       0.16755800
H       -0.40199700       4.81321100       0.07071000
H       -2.84532000       5.09816700       0.00933800
H       -3.70773700      -1.61056600      -0.17200800
H       -1.27202900      -1.95588300      -0.11238600
H       -6.52266300       2.16338500      -0.16179200
C        5.49003495      10.67384938       2.84933376
C        5.87109787      10.51593834       4.22039518
C        6.21757055      11.69912095       5.00090061
C        5.43949318      11.96046145       2.22326108
C        5.78574739      13.14366920       3.00367429
C        6.16691746      12.98568777       4.37470269
C        6.50371392      14.13577328       5.13369130
C        6.45946971      15.42313010       4.52960898
C        6.88504729      13.99937569       6.49749207
C        7.23735920      15.20182912       7.29156268
C        5.75456575      14.41490329       2.45044949
C        6.08981085      15.55494995       3.20773311
C        6.59404602      11.60713089       6.33233660
C        6.92796567      12.75178575       7.08315937
C        6.81160844      16.62594695       5.32307267
N        7.18042395      16.44629549       6.65875628
O        7.57825099      15.14823117       8.48663532
O        6.79221586      17.77724023       4.85252535
C        5.90206315       9.24487764       4.77380569
C        5.56680211       8.10483743       4.01659231
C        5.15327636       9.52390679       2.09029282
C        5.19740919       8.23675805       2.69470203
C        4.77215745       9.66018307       0.72641926
C        4.72949468      10.90789656       0.14103864
C        5.06328257      12.05256882       0.89181243
C        4.84529022       7.03385253       1.90124370
C        4.41992967       8.45770505      -0.06768634
N        4.47673477       7.21340309       0.56546311
O        4.86448495       5.88260190       2.37187757
O        4.07928724       8.51112418      -1.26283162
H        5.46698088      14.57844040       1.40069547
H        6.05637339      16.55539159       2.74162586
H        6.64535045      10.63699084       6.84964829
H        7.22437440      12.64941659       8.14191908
H        7.41783228      17.25680888       7.19379188
H        6.18946669       9.08148803       5.82363899
H        5.60000956       7.10432053       4.48269057
H        4.43328838      11.01036891      -0.91779974
H        5.01216711      13.02279748       0.37467956
H        4.23939864       6.40280046       0.03053492
