80
Dimer: struct; Energy: -4906.06228 eV
C       -1.29972200       1.48833600      -0.03228100
C       -0.45010500       2.63965400       0.01843500
C        0.99654200       2.45238200       0.05441800
C       -0.76903400       0.15867800      -0.04877100
C        0.67752200      -0.02870400      -0.01297900
C        1.52709100       1.12265000       0.03785500
C        2.93347700       0.94084900       0.07277000
C        3.48023700      -0.37253000       0.05696900
C        3.79427800       2.07240500       0.12351100
C        5.26507800       1.88272800       0.16006300
C        1.24802600      -1.29258500      -0.02698300
C        2.64560500      -1.46904700       0.00777700
C        1.86805800       3.52983300       0.10418700
C        3.26457400       3.34539700       0.13880400
C        4.95087500      -0.56291500       0.09346700
N        5.75909100       0.57580800       0.14293500
O        6.06925500       2.83065500       0.20492200
O        5.48910000      -1.68427500       0.08194900
C       -1.02041300       3.90352800       0.03216900
C       -2.41794600       4.08003500      -0.00262400
C       -2.70602800       1.67000700      -0.06716000
C       -3.25245200       2.98347100      -0.05156500
C       -3.56691500       0.53850500      -0.11766500
C       -3.03687800      -0.73433100      -0.13279200
C       -1.64041100      -0.91883000      -0.09829200
C       -4.72314700       3.17392200      -0.08803700
C       -5.03773600       0.72818300      -0.15412500
N       -5.53143900       2.03522700      -0.13722100
O       -5.26133100       4.29529300      -0.07673500
O       -5.84203300      -0.21964700      -0.19870900
H        0.62972700      -2.20233100      -0.06573200
H        3.07286500      -2.48716200      -0.00439800
H        1.49989900       4.56697900       0.11841200
H        3.93550500       4.22152900       0.17822500
H        6.75033500       0.44779700       0.16755800
H       -0.40199700       4.81321100       0.07071000
H       -2.84532000       5.09816700       0.00933800
H       -3.70773700      -1.61056600      -0.17200800
H       -1.27202900      -1.95588300      -0.11238600
H       -6.52266300       2.16338500      -0.16179200
C       -0.49010606       7.92754958       5.99218571
C       -0.40201659       7.97761438       7.42036219
C        0.47254366       8.96605399       8.04268415
C        0.25605439       8.82052501       5.15808048
C        1.13045883       9.80907373       5.78025863
C        1.21859968       9.85901666       7.20844087
C        2.06867755      10.81988540       7.81366076
C        2.81825213      11.71621235       7.00193635
C        2.16984174      10.88518001       9.23122008
C        3.05872287      11.88985042       9.86453972
C        1.87663060      10.69953199       5.02304144
C        2.71994135      11.65263960       5.62801006
C        0.59797002       9.06084184       9.42043639
C        1.44343109      10.01658691      10.01811426
C        3.70725617      12.72109987       7.63457175
N        3.77652934      12.75029670       9.02981332
O        3.19008553      11.99676128      11.09685157
O        4.38727341      13.53129408       6.98002690
C       -1.14828622       7.08746014       8.17767612
C       -1.99161332       6.13438536       7.57276983
C       -1.34006710       6.96676204       5.38689983
C       -2.08964782       6.07075103       6.19887464
C       -1.44111673       6.90123747       3.96934226
C       -0.71445513       7.76987549       3.18276078
C        0.13091259       8.72568999       3.78035788
C       -2.97868622       5.06578309       5.56626439
C       -2.32993932       5.89649364       3.33601316
N       -3.04779357       5.03634231       4.17100860
O       -3.65885013       4.25575047       6.22083822
O       -2.46119129       5.78928821       2.10372139
H        1.83665979      10.69343062       3.92313325
H        3.30290297      12.34962466       5.00061460
H        0.04170055       8.39304675      10.09573575
H        1.52425575      10.06992641      11.11808334
H        4.37564463      13.42747273       9.45648799
H       -1.10838866       7.09379709       9.27759200
H       -2.57480508       5.43745725       8.20011581
H       -0.79504786       7.71649191       2.08274602
H        0.68736932       9.39350701       3.10525849
H       -3.64691060       4.35908603       3.74446909
