80
Dimer: struct; Energy: -4906.06228 eV
C       -1.29972200       1.48833600      -0.03228100
C       -0.45010500       2.63965400       0.01843500
C        0.99654200       2.45238200       0.05441800
C       -0.76903400       0.15867800      -0.04877100
C        0.67752200      -0.02870400      -0.01297900
C        1.52709100       1.12265000       0.03785500
C        2.93347700       0.94084900       0.07277000
C        3.48023700      -0.37253000       0.05696900
C        3.79427800       2.07240500       0.12351100
C        5.26507800       1.88272800       0.16006300
C        1.24802600      -1.29258500      -0.02698300
C        2.64560500      -1.46904700       0.00777700
C        1.86805800       3.52983300       0.10418700
C        3.26457400       3.34539700       0.13880400
C        4.95087500      -0.56291500       0.09346700
N        5.75909100       0.57580800       0.14293500
O        6.06925500       2.83065500       0.20492200
O        5.48910000      -1.68427500       0.08194900
C       -1.02041300       3.90352800       0.03216900
C       -2.41794600       4.08003500      -0.00262400
C       -2.70602800       1.67000700      -0.06716000
C       -3.25245200       2.98347100      -0.05156500
C       -3.56691500       0.53850500      -0.11766500
C       -3.03687800      -0.73433100      -0.13279200
C       -1.64041100      -0.91883000      -0.09829200
C       -4.72314700       3.17392200      -0.08803700
C       -5.03773600       0.72818300      -0.15412500
N       -5.53143900       2.03522700      -0.13722100
O       -5.26133100       4.29529300      -0.07673500
O       -5.84203300      -0.21964700      -0.19870900
H        0.62972700      -2.20233100      -0.06573200
H        3.07286500      -2.48716200      -0.00439800
H        1.49989900       4.56697900       0.11841200
H        3.93550500       4.22152900       0.17822500
H        6.75033500       0.44779700       0.16755800
H       -0.40199700       4.81321100       0.07071000
H       -2.84532000       5.09816700       0.00933800
H       -3.70773700      -1.61056600      -0.17200800
H       -1.27202900      -1.95588300      -0.11238600
H       -6.52266300       2.16338500      -0.16179200
C        2.72832997       8.68355750       3.01486047
C        3.64796643       9.77211208       3.15368419
C        3.14861586      11.13949144       3.05330578
C        1.33255273       8.89975098       2.78042854
C        0.83308300      10.26701306       2.68022015
C        1.75278600      11.35553137       2.81893534
C        1.26756873      12.68491300       2.72146259
C       -0.11612659      12.92045063       2.48893335
C        2.16576500      13.77989691       2.85646512
C        1.65876257      15.17026820       2.75457186
C       -0.50825854      10.53689257       2.45431297
C       -0.98640422      11.85889949       2.35814357
C        3.99241811      12.23267067       3.17930052
C        3.50685226      13.55183827       3.08186048
C       -0.62378003      14.31050315       2.38696934
N        0.29291814      15.35586536       2.52565091
O        2.39287333      16.16850795       2.86355522
O       -1.82093756      14.58118655       2.18495099
C        4.98920840       9.50241652       3.37985140
C        5.46738084       8.18046391       3.47606035
C        3.21341120       7.35422514       3.11227270
C        4.59707497       7.11902986       3.34501255
C        2.31532854       6.25917436       2.97704964
C        0.97434537       6.48759586       2.75151189
C        0.48870919       7.80669918       2.65417664
C        5.10480914       5.72893725       3.44696409
C        2.82235324       4.86878467       3.07885307
N        4.18820608       4.68351299       3.30800991
O        6.30192905       5.45829197       3.64919596
O        2.08841195       3.87045543       2.96961930
H       -1.24667045       9.72843491       2.34216579
H       -2.05978589      12.04481622       2.17774331
H        5.07104913      12.10865497       3.35982882
H        4.20132295      14.40397760       3.18616167
H       -0.04894840      16.29286401       2.45695896
H        5.72749613      10.31096976       3.49218928
H        6.54076616       7.99443575       3.65667562
H        0.27979673       5.63550747       2.64698901
H       -0.58985953       7.93095568       2.47353141
H        4.53021820       3.74656806       3.37667672
