80
Dimer: struct; Energy: -4906.06228 eV
C       -1.29972200       1.48833600      -0.03228100
C       -0.45010500       2.63965400       0.01843500
C        0.99654200       2.45238200       0.05441800
C       -0.76903400       0.15867800      -0.04877100
C        0.67752200      -0.02870400      -0.01297900
C        1.52709100       1.12265000       0.03785500
C        2.93347700       0.94084900       0.07277000
C        3.48023700      -0.37253000       0.05696900
C        3.79427800       2.07240500       0.12351100
C        5.26507800       1.88272800       0.16006300
C        1.24802600      -1.29258500      -0.02698300
C        2.64560500      -1.46904700       0.00777700
C        1.86805800       3.52983300       0.10418700
C        3.26457400       3.34539700       0.13880400
C        4.95087500      -0.56291500       0.09346700
N        5.75909100       0.57580800       0.14293500
O        6.06925500       2.83065500       0.20492200
O        5.48910000      -1.68427500       0.08194900
C       -1.02041300       3.90352800       0.03216900
C       -2.41794600       4.08003500      -0.00262400
C       -2.70602800       1.67000700      -0.06716000
C       -3.25245200       2.98347100      -0.05156500
C       -3.56691500       0.53850500      -0.11766500
C       -3.03687800      -0.73433100      -0.13279200
C       -1.64041100      -0.91883000      -0.09829200
C       -4.72314700       3.17392200      -0.08803700
C       -5.03773600       0.72818300      -0.15412500
N       -5.53143900       2.03522700      -0.13722100
O       -5.26133100       4.29529300      -0.07673500
O       -5.84203300      -0.21964700      -0.19870900
H        0.62972700      -2.20233100      -0.06573200
H        3.07286500      -2.48716200      -0.00439800
H        1.49989900       4.56697900       0.11841200
H        3.93550500       4.22152900       0.17822500
H        6.75033500       0.44779700       0.16755800
H       -0.40199700       4.81321100       0.07071000
H       -2.84532000       5.09816700       0.00933800
H       -3.70773700      -1.61056600      -0.17200800
H       -1.27202900      -1.95588300      -0.11238600
H       -6.52266300       2.16338500      -0.16179200
C        7.47376419       6.71456442       5.85785060
C        8.69522429       6.36936352       5.19541127
C        9.96451968       6.63814857       5.86309153
C        7.46351317       7.31598344       7.15711276
C        8.73267099       7.58463268       7.82493262
C        9.95410772       7.23951774       7.16239537
C       11.18817109       7.50065355       7.81130824
C       11.19894147       8.09760881       9.10269857
C       12.41254368       7.16499397       7.16926744
C       13.70330030       7.43793491       7.84751270
C        8.78411277       8.16500782       9.08333818
C       10.01203128       8.42280159       9.72469039
C       11.17839837       6.32550401       5.27007412
C       12.40232764       6.58640191       5.91768616
C       12.48927876       8.37078079       9.78149267
N       13.66765045       8.02523140       9.11486980
O       14.80592518       7.16792162       7.33899546
O       12.56461048       8.89002177      10.90931402
C        8.64394397       5.78876943       3.93719899
C        7.41608281       5.53093204       3.29584057
C        6.23972819       6.45352437       5.20905888
C        6.22928734       5.85638444       3.91780950
C        5.01531134       6.78936452       5.85092237
C        5.02590440       7.36807693       7.10242517
C        6.24975727       7.62889053       7.75012157
C        4.93892381       5.58320196       3.23892891
C        3.72454151       6.51650376       5.17262912
N        3.76051038       5.92898718       3.90537898
O        4.86362045       5.06376622       2.11120616
O        2.62185958       6.78671100       5.68090436
H        7.86806984       8.44475589       9.62559209
H       10.02354536       8.88599298      10.72697711
H       11.22880631       5.86261043       4.27277587
H       13.35443534       6.32711429       5.42213538
H       14.53748665       8.20924449       9.57212459
H        9.56005820       5.50887318       3.39512914
H        7.40445623       5.06752918       2.29358960
H        4.07383753       7.62760035       7.59799933
H        6.19959875       8.09188739       8.74736823
H        2.89075122       5.74496138       3.44798775
