80
Dimer: struct; Energy: -4906.06228 eV
C       -1.29972200       1.48833600      -0.03228100
C       -0.45010500       2.63965400       0.01843500
C        0.99654200       2.45238200       0.05441800
C       -0.76903400       0.15867800      -0.04877100
C        0.67752200      -0.02870400      -0.01297900
C        1.52709100       1.12265000       0.03785500
C        2.93347700       0.94084900       0.07277000
C        3.48023700      -0.37253000       0.05696900
C        3.79427800       2.07240500       0.12351100
C        5.26507800       1.88272800       0.16006300
C        1.24802600      -1.29258500      -0.02698300
C        2.64560500      -1.46904700       0.00777700
C        1.86805800       3.52983300       0.10418700
C        3.26457400       3.34539700       0.13880400
C        4.95087500      -0.56291500       0.09346700
N        5.75909100       0.57580800       0.14293500
O        6.06925500       2.83065500       0.20492200
O        5.48910000      -1.68427500       0.08194900
C       -1.02041300       3.90352800       0.03216900
C       -2.41794600       4.08003500      -0.00262400
C       -2.70602800       1.67000700      -0.06716000
C       -3.25245200       2.98347100      -0.05156500
C       -3.56691500       0.53850500      -0.11766500
C       -3.03687800      -0.73433100      -0.13279200
C       -1.64041100      -0.91883000      -0.09829200
C       -4.72314700       3.17392200      -0.08803700
C       -5.03773600       0.72818300      -0.15412500
N       -5.53143900       2.03522700      -0.13722100
O       -5.26133100       4.29529300      -0.07673500
O       -5.84203300      -0.21964700      -0.19870900
H        0.62972700      -2.20233100      -0.06573200
H        3.07286500      -2.48716200      -0.00439800
H        1.49989900       4.56697900       0.11841200
H        3.93550500       4.22152900       0.17822500
H        6.75033500       0.44779700       0.16755800
H       -0.40199700       4.81321100       0.07071000
H       -2.84532000       5.09816700       0.00933800
H       -3.70773700      -1.61056600      -0.17200800
H       -1.27202900      -1.95588300      -0.11238600
H       -6.52266300       2.16338500      -0.16179200
C        5.35981441       5.15385583       6.00180830
C        4.46926680       4.03714454       6.10098057
C        4.78275731       2.81313129       5.37113923
C        6.54924399       5.10254238       5.20649939
C        6.86291697       3.87858754       4.47680003
C        5.97227084       2.76194380       4.57591525
C        6.27685443       1.57189152       3.86655170
C        7.45419891       1.50114507       3.07092900
C        5.40424117       0.45154825       3.95227826
C        5.72237658      -0.79314351       3.21059211
C        8.00062853       3.77116057       3.69121873
C        8.29974428       2.58722493       2.98808268
C        3.95738404       1.70034997       5.42940114
C        4.26314171       0.51989493       4.72334868
C        7.77293772       0.25681024       2.32904553
N        6.88860866      -0.81914601       2.44143107
O        5.00019184      -1.80534200       3.24497229
O        8.78575990       0.13307144       1.61760543
C        3.33172784       4.14431546       6.88668842
C        3.03259735       5.32818528       7.58985054
C        5.05533059       6.34388945       6.71105230
C        3.87806455       6.41424443       7.50673120
C        5.92776313       7.46436467       6.62519950
C        7.06868407       7.39572036       5.85392335
C        7.37455065       6.21529365       5.14795689
C        3.55924964       7.65861698       8.24864735
C        5.60957562       8.70910312       7.36682232
N        4.44339561       8.73471934       8.13608197
O        2.54653757       7.78224929       8.96024554
O        6.33151876       9.72146209       7.33231841
H        8.71004630       4.60646205       3.58908751
H        9.21278224       2.52934455       2.36980358
H        3.03444412       1.69979461       6.02906506
H        3.58796870      -0.35148767       4.78771844
H        7.10317136      -1.65795049       1.94150340
H        2.62248727       3.30886577       6.98890653
H        2.11964409       5.38609696       8.20835437
H        7.74384373       8.26713457       5.78931560
H        8.29737014       6.21565948       4.54813449
H        4.22868437       9.57347442       8.63602418
