80
Dimer: struct; Energy: -4906.06228 eV
C       -1.29972200       1.48833600      -0.03228100
C       -0.45010500       2.63965400       0.01843500
C        0.99654200       2.45238200       0.05441800
C       -0.76903400       0.15867800      -0.04877100
C        0.67752200      -0.02870400      -0.01297900
C        1.52709100       1.12265000       0.03785500
C        2.93347700       0.94084900       0.07277000
C        3.48023700      -0.37253000       0.05696900
C        3.79427800       2.07240500       0.12351100
C        5.26507800       1.88272800       0.16006300
C        1.24802600      -1.29258500      -0.02698300
C        2.64560500      -1.46904700       0.00777700
C        1.86805800       3.52983300       0.10418700
C        3.26457400       3.34539700       0.13880400
C        4.95087500      -0.56291500       0.09346700
N        5.75909100       0.57580800       0.14293500
O        6.06925500       2.83065500       0.20492200
O        5.48910000      -1.68427500       0.08194900
C       -1.02041300       3.90352800       0.03216900
C       -2.41794600       4.08003500      -0.00262400
C       -2.70602800       1.67000700      -0.06716000
C       -3.25245200       2.98347100      -0.05156500
C       -3.56691500       0.53850500      -0.11766500
C       -3.03687800      -0.73433100      -0.13279200
C       -1.64041100      -0.91883000      -0.09829200
C       -4.72314700       3.17392200      -0.08803700
C       -5.03773600       0.72818300      -0.15412500
N       -5.53143900       2.03522700      -0.13722100
O       -5.26133100       4.29529300      -0.07673500
O       -5.84203300      -0.21964700      -0.19870900
H        0.62972700      -2.20233100      -0.06573200
H        3.07286500      -2.48716200      -0.00439800
H        1.49989900       4.56697900       0.11841200
H        3.93550500       4.22152900       0.17822500
H        6.75033500       0.44779700       0.16755800
H       -0.40199700       4.81321100       0.07071000
H       -2.84532000       5.09816700       0.00933800
H       -3.70773700      -1.61056600      -0.17200800
H       -1.27202900      -1.95588300      -0.11238600
H       -6.52266300       2.16338500      -0.16179200
C        2.87171218       1.96140646       6.91168004
C        3.74634475       3.09390237       6.96092605
C        4.71269055       3.19678253       8.04938579
C        2.91926765       0.92730523       7.90075294
C        3.88564322       1.02997876       8.98909744
C        4.76017435       2.16255819       9.03835953
C        5.69973627       2.26275760      10.09636507
C        5.76258921       1.24533099      11.08886351
C        6.57726652       3.38057399      10.16269131
C        7.55995347       3.48575990      11.26895906
C        3.97717409       0.05891146       9.97485425
C        4.91189762       0.16203561      11.02425003
C        5.58454409       4.27055103       8.14843305
C        6.51653491       4.36674325       9.20086456
C        6.74501173       1.34986868      12.19533201
N        7.58748615       2.46426498      12.22193974
O        8.35316211       4.43724193      11.38201034
O        6.84863504       0.49411616      13.09211343
C        3.65512732       4.06485608       5.97515448
C        2.72046978       3.96176013       4.92574976
C        1.93215076       1.86113019       5.85381120
C        1.86969412       2.87857689       4.86138416
C        1.05442015       0.74346742       5.78753253
C        1.11532370      -0.24242935       6.74960211
C        2.04733872      -0.14635890       7.80196548
C        0.88723096       2.77409852       3.75485988
C        0.07165888       0.63832668       4.68130145
N        0.04452558       1.65986067       3.72834578
O        0.78377959       3.62975476       2.85798036
O       -0.72178861      -0.31295109       4.56827584
H        3.32326760      -0.82643251       9.97255685
H        4.96302570      -0.62605281      11.79597540
H        5.57942090       5.08549746       7.40866870
H        7.19907926       5.23304592       9.25529431
H        8.24972801       2.53499963      12.96758718
H        4.30923598       4.95005862       5.97744522
H        2.66940203       4.74973305       4.15382025
H        0.43267180      -1.10869972       6.69538498
H        2.05256126      -0.96112215       8.54190903
H       -0.61769753       1.58927954       2.98267019
