80
Dimer: struct; Energy: -4906.06228 eV
C       -1.29972200       1.48833600      -0.03228100
C       -0.45010500       2.63965400       0.01843500
C        0.99654200       2.45238200       0.05441800
C       -0.76903400       0.15867800      -0.04877100
C        0.67752200      -0.02870400      -0.01297900
C        1.52709100       1.12265000       0.03785500
C        2.93347700       0.94084900       0.07277000
C        3.48023700      -0.37253000       0.05696900
C        3.79427800       2.07240500       0.12351100
C        5.26507800       1.88272800       0.16006300
C        1.24802600      -1.29258500      -0.02698300
C        2.64560500      -1.46904700       0.00777700
C        1.86805800       3.52983300       0.10418700
C        3.26457400       3.34539700       0.13880400
C        4.95087500      -0.56291500       0.09346700
N        5.75909100       0.57580800       0.14293500
O        6.06925500       2.83065500       0.20492200
O        5.48910000      -1.68427500       0.08194900
C       -1.02041300       3.90352800       0.03216900
C       -2.41794600       4.08003500      -0.00262400
C       -2.70602800       1.67000700      -0.06716000
C       -3.25245200       2.98347100      -0.05156500
C       -3.56691500       0.53850500      -0.11766500
C       -3.03687800      -0.73433100      -0.13279200
C       -1.64041100      -0.91883000      -0.09829200
C       -4.72314700       3.17392200      -0.08803700
C       -5.03773600       0.72818300      -0.15412500
N       -5.53143900       2.03522700      -0.13722100
O       -5.26133100       4.29529300      -0.07673500
O       -5.84203300      -0.21964700      -0.19870900
H        0.62972700      -2.20233100      -0.06573200
H        3.07286500      -2.48716200      -0.00439800
H        1.49989900       4.56697900       0.11841200
H        3.93550500       4.22152900       0.17822500
H        6.75033500       0.44779700       0.16755800
H       -0.40199700       4.81321100       0.07071000
H       -2.84532000       5.09816700       0.00933800
H       -3.70773700      -1.61056600      -0.17200800
H       -1.27202900      -1.95588300      -0.11238600
H       -6.52266300       2.16338500      -0.16179200
C        5.70164338       7.30132957       4.05046776
C        5.49890994       5.92234090       4.37794862
C        5.02226660       5.57297084       5.71207935
C        5.44950534       8.34666083       4.99577248
C        4.97271040       7.99744365       6.32980070
C        4.77010560       6.61842766       6.65726644
C        4.30667531       6.27854649       7.95414940
C        4.05023312       7.30292376       8.90759010
C        4.09930122       4.91388389       8.29862577
C        3.61469848       4.55801380       9.65475361
C        4.71163777       8.96716449       7.28612108
C        4.25133398       8.62550587       8.57335220
C        4.80813353       4.25478148       6.08549811
C        4.34775254       3.92092150       7.37470669
C        3.56560834       6.94777431      10.26382104
N        3.37560690       5.59547387      10.55968119
O        3.41429799       3.38473741      10.01605780
O        3.32367981       7.79654121      11.14036676
C        5.75966122       4.95258164       3.42170959
C        6.21991986       5.29418507       2.13449056
C        6.16507447       7.64129928       2.75371424
C        6.42121019       6.61674182       1.80046371
C        6.37270166       9.00592035       2.40922295
C        6.12429619       9.99860256       3.33342870
C        5.66382016       9.66482974       4.62257871
C        6.90588174       6.97184803       0.44416778
C        6.85739794       9.36178836       1.05310756
N        7.09617675       8.32412295       0.14832715
O        7.14759410       6.12307659      -0.43241927
O        7.05810157      10.53499184       0.69175626
H        4.85462959      10.03762282       7.07374118
H        4.05142365       9.41835498       9.31543282
H        4.99016131       3.42283282       5.38825888
H        4.18577107       2.86269460       7.64531258
H        3.04899195       5.35580231      11.47370417
H        5.61643138       3.88215941       3.63414402
H        6.41967096       4.50138126       1.39223318
H        6.28644062      11.05687984       3.06299229
H        5.48184121      10.49659954       5.32002083
H        7.42283922       8.56364593      -0.76571530
