80
Dimer: struct; Energy: -4906.06228 eV
C       -1.29972200       1.48833600      -0.03228100
C       -0.45010500       2.63965400       0.01843500
C        0.99654200       2.45238200       0.05441800
C       -0.76903400       0.15867800      -0.04877100
C        0.67752200      -0.02870400      -0.01297900
C        1.52709100       1.12265000       0.03785500
C        2.93347700       0.94084900       0.07277000
C        3.48023700      -0.37253000       0.05696900
C        3.79427800       2.07240500       0.12351100
C        5.26507800       1.88272800       0.16006300
C        1.24802600      -1.29258500      -0.02698300
C        2.64560500      -1.46904700       0.00777700
C        1.86805800       3.52983300       0.10418700
C        3.26457400       3.34539700       0.13880400
C        4.95087500      -0.56291500       0.09346700
N        5.75909100       0.57580800       0.14293500
O        6.06925500       2.83065500       0.20492200
O        5.48910000      -1.68427500       0.08194900
C       -1.02041300       3.90352800       0.03216900
C       -2.41794600       4.08003500      -0.00262400
C       -2.70602800       1.67000700      -0.06716000
C       -3.25245200       2.98347100      -0.05156500
C       -3.56691500       0.53850500      -0.11766500
C       -3.03687800      -0.73433100      -0.13279200
C       -1.64041100      -0.91883000      -0.09829200
C       -4.72314700       3.17392200      -0.08803700
C       -5.03773600       0.72818300      -0.15412500
N       -5.53143900       2.03522700      -0.13722100
O       -5.26133100       4.29529300      -0.07673500
O       -5.84203300      -0.21964700      -0.19870900
H        0.62972700      -2.20233100      -0.06573200
H        3.07286500      -2.48716200      -0.00439800
H        1.49989900       4.56697900       0.11841200
H        3.93550500       4.22152900       0.17822500
H        6.75033500       0.44779700       0.16755800
H       -0.40199700       4.81321100       0.07071000
H       -2.84532000       5.09816700       0.00933800
H       -3.70773700      -1.61056600      -0.17200800
H       -1.27202900      -1.95588300      -0.11238600
H       -6.52266300       2.16338500      -0.16179200
C        1.49335409      11.09148298       2.14446294
C        1.13137141      12.06269156       1.15669945
C        0.41156720      13.26211922       1.57192023
C        1.16866006      11.26482091       3.52808855
C        0.44905916      12.46422964       3.94343249
C        0.08699731      13.43535228       2.95560678
C       -0.61269781      14.60148616       3.35903059
C       -0.94437968      14.79209541       4.72936479
C       -0.98128302      15.57801572       2.39233159
C       -1.71302728      16.79764304       2.81378811
C        0.10811899      12.68565671       5.26925147
C       -0.58696143      13.84539199       5.66605299
C        0.03511286      14.23638300       0.65977442
C       -0.65989438      15.39348860       1.06417952
C       -1.67604946      16.01144877       5.15149200
N       -2.01847616      16.94444400       4.16934429
O       -2.06264168      17.68683222       2.01730148
O       -1.99430340      16.23535492       6.33295191
C        1.47245767      11.84155272      -0.16903623
C        2.16754882      10.68188200      -0.56586853
C        2.19297118       9.92537383       1.74117291
C        2.52468372       9.73516654       0.37084519
C        2.56139216       8.94867708       2.70776662
C        2.23971248       9.13345467       4.03579484
C        1.54482694      10.29055550       4.44027224
C        3.25636173       8.51576679      -0.05135987
C        3.29306517       7.72899102       2.28629063
N        3.59857541       7.58258605       0.93070164
O        3.57478774       8.29199431      -1.23278843
O        3.64249979       6.83959739       3.08261815
H        0.36822140      11.96373415       6.05830627
H       -0.84573757      13.99608738       6.72887155
H        0.26580800      14.14035263      -0.41212723
H       -0.94746824      16.15338386       0.31640271
H       -2.51163680      17.76637582       4.45355978
H        1.21247972      12.56365502      -0.95797645
H        2.42656715      10.53118560      -1.62868765
H        2.52706490       8.37350838       4.78365023
H        1.31391861      10.38674228       5.51209886
H        4.09169099       6.76068121       0.64633798
