80
Dimer: struct; Energy: -4906.06228 eV
C       -1.29972200       1.48833600      -0.03228100
C       -0.45010500       2.63965400       0.01843500
C        0.99654200       2.45238200       0.05441800
C       -0.76903400       0.15867800      -0.04877100
C        0.67752200      -0.02870400      -0.01297900
C        1.52709100       1.12265000       0.03785500
C        2.93347700       0.94084900       0.07277000
C        3.48023700      -0.37253000       0.05696900
C        3.79427800       2.07240500       0.12351100
C        5.26507800       1.88272800       0.16006300
C        1.24802600      -1.29258500      -0.02698300
C        2.64560500      -1.46904700       0.00777700
C        1.86805800       3.52983300       0.10418700
C        3.26457400       3.34539700       0.13880400
C        4.95087500      -0.56291500       0.09346700
N        5.75909100       0.57580800       0.14293500
O        6.06925500       2.83065500       0.20492200
O        5.48910000      -1.68427500       0.08194900
C       -1.02041300       3.90352800       0.03216900
C       -2.41794600       4.08003500      -0.00262400
C       -2.70602800       1.67000700      -0.06716000
C       -3.25245200       2.98347100      -0.05156500
C       -3.56691500       0.53850500      -0.11766500
C       -3.03687800      -0.73433100      -0.13279200
C       -1.64041100      -0.91883000      -0.09829200
C       -4.72314700       3.17392200      -0.08803700
C       -5.03773600       0.72818300      -0.15412500
N       -5.53143900       2.03522700      -0.13722100
O       -5.26133100       4.29529300      -0.07673500
O       -5.84203300      -0.21964700      -0.19870900
H        0.62972700      -2.20233100      -0.06573200
H        3.07286500      -2.48716200      -0.00439800
H        1.49989900       4.56697900       0.11841200
H        3.93550500       4.22152900       0.17822500
H        6.75033500       0.44779700       0.16755800
H       -0.40199700       4.81321100       0.07071000
H       -2.84532000       5.09816700       0.00933800
H       -3.70773700      -1.61056600      -0.17200800
H       -1.27202900      -1.95588300      -0.11238600
H       -6.52266300       2.16338500      -0.16179200
C       11.70469560       3.42907722       3.02475792
C       11.99232627       2.54860633       1.93297318
C       11.08458011       2.51492011       0.79103831
C       10.55123190       4.27725724       3.02681382
C        9.64356212       4.24379402       1.88491490
C        9.93117948       3.36321609       0.79320690
C        9.04890353       3.33034441      -0.31706371
C        7.89737674       4.16572680      -0.33388263
C        9.31750559       2.46197958      -1.41148934
C        8.39509925       2.42727458      -2.57275079
C        8.51135978       5.04276941       1.83178958
C        7.63736062       5.00726307       0.72705481
C       11.31215535       1.68228091      -0.29424471
C       10.43350578       1.65227989      -1.39540173
C        6.97461511       4.13154737      -1.49478635
N        7.27643339       3.26414188      -2.54781233
O        8.57496884       1.69053092      -3.55871949
O        5.95266559       4.83683970      -1.56860346
C       13.12456351       1.74981793       1.98582431
C       13.99858570       1.78531462       3.09049120
C       12.58682398       3.46200139       4.13502049
C       13.73833878       2.62668463       4.15144178
C       12.31817808       4.33016318       5.22959732
C       11.20201738       5.13960580       5.21324338
C       10.32341394       5.10973786       4.11210119
C       14.66116051       2.66080608       5.31238164
C       13.24054742       4.36480122       6.39091403
N       14.35925042       3.52798933       6.36557908
O       15.68321016       1.95566283       5.38607144
O       13.06065979       5.10128744       7.37706392
H        8.25534356       5.73269140       2.65026149
H        6.74286584       5.65447556       0.71116189
H       12.18695184       1.01551911      -0.33393156
H       10.63906122       0.97942687      -2.24647486
H        6.65466629       3.24087941      -3.33038648
H       13.38058637       1.06008138       1.16718965
H       14.89326489       1.13825909       3.10638682
H       10.99624692       5.81236880       6.06437553
H        9.44849184       5.77632042       4.15162180
H       14.98107687       3.55111368       7.14810726
