80
Dimer: struct; Energy: -4906.06228 eV
C       -1.29972200       1.48833600      -0.03228100
C       -0.45010500       2.63965400       0.01843500
C        0.99654200       2.45238200       0.05441800
C       -0.76903400       0.15867800      -0.04877100
C        0.67752200      -0.02870400      -0.01297900
C        1.52709100       1.12265000       0.03785500
C        2.93347700       0.94084900       0.07277000
C        3.48023700      -0.37253000       0.05696900
C        3.79427800       2.07240500       0.12351100
C        5.26507800       1.88272800       0.16006300
C        1.24802600      -1.29258500      -0.02698300
C        2.64560500      -1.46904700       0.00777700
C        1.86805800       3.52983300       0.10418700
C        3.26457400       3.34539700       0.13880400
C        4.95087500      -0.56291500       0.09346700
N        5.75909100       0.57580800       0.14293500
O        6.06925500       2.83065500       0.20492200
O        5.48910000      -1.68427500       0.08194900
C       -1.02041300       3.90352800       0.03216900
C       -2.41794600       4.08003500      -0.00262400
C       -2.70602800       1.67000700      -0.06716000
C       -3.25245200       2.98347100      -0.05156500
C       -3.56691500       0.53850500      -0.11766500
C       -3.03687800      -0.73433100      -0.13279200
C       -1.64041100      -0.91883000      -0.09829200
C       -4.72314700       3.17392200      -0.08803700
C       -5.03773600       0.72818300      -0.15412500
N       -5.53143900       2.03522700      -0.13722100
O       -5.26133100       4.29529300      -0.07673500
O       -5.84203300      -0.21964700      -0.19870900
H        0.62972700      -2.20233100      -0.06573200
H        3.07286500      -2.48716200      -0.00439800
H        1.49989900       4.56697900       0.11841200
H        3.93550500       4.22152900       0.17822500
H        6.75033500       0.44779700       0.16755800
H       -0.40199700       4.81321100       0.07071000
H       -2.84532000       5.09816700       0.00933800
H       -3.70773700      -1.61056600      -0.17200800
H       -1.27202900      -1.95588300      -0.11238600
H       -6.52266300       2.16338500      -0.16179200
C        4.82132528       5.33657765       8.73036640
C        4.80637621       6.76651713       8.80110483
C        4.78896029       7.53764743       7.56247338
C        4.81954106       4.64266612       7.47801833
C        4.80194104       5.41364493       6.23939035
C        4.78711078       6.84358741       6.31018706
C        4.77010603       7.59345406       5.10619243
C        4.76791840       6.92232509       3.85170381
C        4.75526701       9.01517646       5.15576280
C        4.73750899       9.79973820       3.89690873
C        4.79924419       4.79589546       4.99784115
C        4.78229537       5.54431860       3.80404481
C        4.77418754       8.92424400       7.56950814
C        4.75735548       9.66582038       6.37148767
C        4.75013222       7.70623426       2.59252759
N        4.73595141       9.10020631       2.68734897
O        4.72407162      11.04335331       3.87411672
O        4.74735029       7.17844600       1.46616225
C        4.80879565       7.38437247      10.04250172
C        4.82570843       6.63601167      11.23629141
C        4.83836629       4.58666268       9.93421631
C        4.84033229       5.25806016      11.18850161
C        4.85344304       3.16493870       9.88474336
C        4.85150268       2.51463365       8.66885722
C        4.83455745       3.25612488       7.47083642
C        4.85814495       4.47416723      12.44776336
C        4.87129377       2.38036875      11.14361302
N        4.87261173       3.08018205      12.35301453
O        4.86070918       5.00197984      13.57410698
O        4.88500803       1.13676565      11.16655544
H        4.81023752       3.69957935       4.90087179
H        4.78053508       5.02623181       2.82893433
H        4.77509066       9.49450097       8.51090147
H        4.74582030      10.76943058       6.40643297
H        4.72397709       9.62882229       1.83883289
H        4.79759155       8.48070410      10.13934357
H        4.82726011       7.15402964      12.21150389
H        4.86324251       1.41099884       8.63378809
H        4.83377364       2.68608689       6.52932756
H        4.88463318       2.55169484      13.20160748
