80
Dimer: struct; Energy: -4906.06228 eV
C       -1.29972200       1.48833600      -0.03228100
C       -0.45010500       2.63965400       0.01843500
C        0.99654200       2.45238200       0.05441800
C       -0.76903400       0.15867800      -0.04877100
C        0.67752200      -0.02870400      -0.01297900
C        1.52709100       1.12265000       0.03785500
C        2.93347700       0.94084900       0.07277000
C        3.48023700      -0.37253000       0.05696900
C        3.79427800       2.07240500       0.12351100
C        5.26507800       1.88272800       0.16006300
C        1.24802600      -1.29258500      -0.02698300
C        2.64560500      -1.46904700       0.00777700
C        1.86805800       3.52983300       0.10418700
C        3.26457400       3.34539700       0.13880400
C        4.95087500      -0.56291500       0.09346700
N        5.75909100       0.57580800       0.14293500
O        6.06925500       2.83065500       0.20492200
O        5.48910000      -1.68427500       0.08194900
C       -1.02041300       3.90352800       0.03216900
C       -2.41794600       4.08003500      -0.00262400
C       -2.70602800       1.67000700      -0.06716000
C       -3.25245200       2.98347100      -0.05156500
C       -3.56691500       0.53850500      -0.11766500
C       -3.03687800      -0.73433100      -0.13279200
C       -1.64041100      -0.91883000      -0.09829200
C       -4.72314700       3.17392200      -0.08803700
C       -5.03773600       0.72818300      -0.15412500
N       -5.53143900       2.03522700      -0.13722100
O       -5.26133100       4.29529300      -0.07673500
O       -5.84203300      -0.21964700      -0.19870900
H        0.62972700      -2.20233100      -0.06573200
H        3.07286500      -2.48716200      -0.00439800
H        1.49989900       4.56697900       0.11841200
H        3.93550500       4.22152900       0.17822500
H        6.75033500       0.44779700       0.16755800
H       -0.40199700       4.81321100       0.07071000
H       -2.84532000       5.09816700       0.00933800
H       -3.70773700      -1.61056600      -0.17200800
H       -1.27202900      -1.95588300      -0.11238600
H       -6.52266300       2.16338500      -0.16179200
C       12.82644397       5.89555019       5.46329901
C       12.41915406       4.61749331       4.96265959
C       11.40569008       4.55657223       3.91464600
C       12.26688183       7.11514937       4.96393929
C       11.25359950       7.05436543       3.91585458
C       10.84626093       5.77627271       3.41533294
C        9.86109399       5.71679712       2.39646052
C        9.29311126       6.91764700       1.88703365
C        9.44311135       4.45629454       1.88617066
C        8.41286988       4.39364905       0.82069231
C       10.67683467       8.20243858       3.39399590
C        9.69848836       8.13920076       2.38186269
C       10.97234811       3.34754130       3.39179161
C        9.99348403       3.29233221       2.37973975
C        8.26289874       6.85572868       0.82158400
N        7.88178925       5.59708433       0.34943973
O        8.00610141       3.32360938       0.33403731
O        7.72932628       7.86890230       0.33573761
C       12.99598581       3.46941359       5.48419140
C       13.97433336       3.53260183       6.49627198
C       13.81151009       5.95513761       6.48212753
C       14.37943567       4.75416264       6.99117539
C       14.22938581       7.21558455       6.99264428
C       13.67869749       8.37932574       6.49895579
C       12.69994095       8.32419522       5.48685575
C       15.40967780       4.81602375       8.05668932
C       15.25957399       7.27822595       8.05820041
N       15.79063430       6.07463290       8.52908374
O       15.94338308       3.80284797       8.54236018
O       15.66623661       8.34817060       8.54513683
H       10.96263827       9.20334415       3.75167909
H        9.25588218       9.06950634       1.98451047
H       11.37755926       2.38847085       3.74872721
H        9.66682182       2.31560722       1.98148128
H        7.18743772       5.55504069      -0.36865919
H       12.71024666       2.46856531       5.12627693
H       14.41717359       2.60231395       6.89356454
H       14.00514497       9.35612520       6.89729275
H       12.29450201       9.28312743       5.12985277
H       16.48495899       6.11652492       9.24721431
