80
Dimer: struct; Energy: -4906.06228 eV
C       -1.29972200       1.48833600      -0.03228100
C       -0.45010500       2.63965400       0.01843500
C        0.99654200       2.45238200       0.05441800
C       -0.76903400       0.15867800      -0.04877100
C        0.67752200      -0.02870400      -0.01297900
C        1.52709100       1.12265000       0.03785500
C        2.93347700       0.94084900       0.07277000
C        3.48023700      -0.37253000       0.05696900
C        3.79427800       2.07240500       0.12351100
C        5.26507800       1.88272800       0.16006300
C        1.24802600      -1.29258500      -0.02698300
C        2.64560500      -1.46904700       0.00777700
C        1.86805800       3.52983300       0.10418700
C        3.26457400       3.34539700       0.13880400
C        4.95087500      -0.56291500       0.09346700
N        5.75909100       0.57580800       0.14293500
O        6.06925500       2.83065500       0.20492200
O        5.48910000      -1.68427500       0.08194900
C       -1.02041300       3.90352800       0.03216900
C       -2.41794600       4.08003500      -0.00262400
C       -2.70602800       1.67000700      -0.06716000
C       -3.25245200       2.98347100      -0.05156500
C       -3.56691500       0.53850500      -0.11766500
C       -3.03687800      -0.73433100      -0.13279200
C       -1.64041100      -0.91883000      -0.09829200
C       -4.72314700       3.17392200      -0.08803700
C       -5.03773600       0.72818300      -0.15412500
N       -5.53143900       2.03522700      -0.13722100
O       -5.26133100       4.29529300      -0.07673500
O       -5.84203300      -0.21964700      -0.19870900
H        0.62972700      -2.20233100      -0.06573200
H        3.07286500      -2.48716200      -0.00439800
H        1.49989900       4.56697900       0.11841200
H        3.93550500       4.22152900       0.17822500
H        6.75033500       0.44779700       0.16755800
H       -0.40199700       4.81321100       0.07071000
H       -2.84532000       5.09816700       0.00933800
H       -3.70773700      -1.61056600      -0.17200800
H       -1.27202900      -1.95588300      -0.11238600
H       -6.52266300       2.16338500      -0.16179200
C        2.67843160      13.06834614       2.75472439
C        1.84269989      13.57162712       1.70676683
C        1.31384770      12.64266697       0.71353901
C        3.00933046      11.67897439       2.85494495
C        2.48041633      10.74994249       1.86193594
C        1.64478278      11.25329750       0.81392930
C        1.13048393      10.35039500      -0.15170832
C        1.44775246       8.96594790      -0.06920079
C        0.29842713      10.83129213      -1.20070375
C       -0.23959338       9.88741473      -2.21075101
C        2.76709590       9.39396110       1.90879129
C        2.25424142       8.50020032       0.94767418
C        0.49982100      13.07284461      -0.32339179
C       -0.00920980      12.17303253      -1.28083515
C        0.91006887       8.02156323      -1.07884857
N        0.09710667       8.53653095      -2.09188903
O       -0.97144120      10.24587800      -3.15052833
O        1.15098528       6.80135779      -1.06081987
C        1.55572491      14.92745510       1.65993524
C        2.06851362      15.82122321       2.62102319
C        3.19277991      13.97110350       3.72032908
C        2.87516442      15.35540787       3.63767389
C        4.02503645      13.49033413       4.76922557
C        4.33258889      12.14856927       4.84896321
C        3.82351526      11.24871324       3.89164749
C        3.41286489      16.29988194       4.64732359
C        4.56313801      14.43423798       5.77923236
N        4.22607139      15.78502254       5.66023835
O        3.17175605      17.52004079       4.62939111
O        5.29521250      14.07596246       6.71889650
H        3.40509840       8.96790060       2.69800493
H        2.49873307       7.42516368       1.00913593
H        0.22257895      14.13211030      -0.43523209
H       -0.65530145      12.54300763      -2.09630662
H       -0.26542286       7.90025640      -2.77253932
H        0.91753488      15.35336804       0.87078470
H        1.82389770      16.89630222       2.55976495
H        4.97885445      11.77850199       5.66429657
H        4.10072129      10.18942476       4.00321627
H        4.58856901      16.42141610       6.34079102
