80
Dimer: struct; Energy: -4906.06228 eV
C       -1.29972200       1.48833600      -0.03228100
C       -0.45010500       2.63965400       0.01843500
C        0.99654200       2.45238200       0.05441800
C       -0.76903400       0.15867800      -0.04877100
C        0.67752200      -0.02870400      -0.01297900
C        1.52709100       1.12265000       0.03785500
C        2.93347700       0.94084900       0.07277000
C        3.48023700      -0.37253000       0.05696900
C        3.79427800       2.07240500       0.12351100
C        5.26507800       1.88272800       0.16006300
C        1.24802600      -1.29258500      -0.02698300
C        2.64560500      -1.46904700       0.00777700
C        1.86805800       3.52983300       0.10418700
C        3.26457400       3.34539700       0.13880400
C        4.95087500      -0.56291500       0.09346700
N        5.75909100       0.57580800       0.14293500
O        6.06925500       2.83065500       0.20492200
O        5.48910000      -1.68427500       0.08194900
C       -1.02041300       3.90352800       0.03216900
C       -2.41794600       4.08003500      -0.00262400
C       -2.70602800       1.67000700      -0.06716000
C       -3.25245200       2.98347100      -0.05156500
C       -3.56691500       0.53850500      -0.11766500
C       -3.03687800      -0.73433100      -0.13279200
C       -1.64041100      -0.91883000      -0.09829200
C       -4.72314700       3.17392200      -0.08803700
C       -5.03773600       0.72818300      -0.15412500
N       -5.53143900       2.03522700      -0.13722100
O       -5.26133100       4.29529300      -0.07673500
O       -5.84203300      -0.21964700      -0.19870900
H        0.62972700      -2.20233100      -0.06573200
H        3.07286500      -2.48716200      -0.00439800
H        1.49989900       4.56697900       0.11841200
H        3.93550500       4.22152900       0.17822500
H        6.75033500       0.44779700       0.16755800
H       -0.40199700       4.81321100       0.07071000
H       -2.84532000       5.09816700       0.00933800
H       -3.70773700      -1.61056600      -0.17200800
H       -1.27202900      -1.95588300      -0.11238600
H       -6.52266300       2.16338500      -0.16179200
C        3.43932250       9.28449056       6.34893215
C        4.40700073       8.57937603       7.13402237
C        4.95245264       7.32427362       6.62770896
C        2.99234034       8.79212978       5.08098898
C        3.53782748       7.53720101       4.57451598
C        4.50541872       6.83206655       5.35970398
C        5.03587499       5.61193913       4.86766995
C        4.60447573       5.10617466       3.60979176
C        5.99824548       4.89656390       5.63321113
C        6.55320914       3.62055042       5.11904095
C        3.14238090       7.01218450       3.35343212
C        3.67169597       5.79982266       2.86806786
C        5.89180841       6.59826537       7.34425658
C        6.41650725       5.38658116       6.85233746
C        5.15902754       3.83030052       3.09503730
N        6.10173687       3.16054290       3.87930389
O        7.39622083       2.94945308       5.74052163
O        4.82237991       3.33677659       2.00399671
C        4.80272619       9.10436777       8.35492464
C        4.27347972      10.31670960       8.84030000
C        2.90880884      10.50452616       6.84085271
C        3.34055514      11.01011673       8.09862193
C        1.94625948      11.21985236       6.07548932
C        1.52811674      10.72947073       4.85648890
C        2.05284260       9.51788733       4.36447403
C        2.78599343      12.28602811       8.61345882
C        1.39122127      12.49583533       6.58970867
N        1.84306198      12.95570197       7.82936792
O        3.12281931      12.77963124       9.70439738
O        0.54801005      13.16689362       5.96846902
H        2.40137966       7.52358069       2.72032547
H        3.33881209       5.40481713       1.89214961
H        6.26070242       6.94269644       8.32236684
H        7.16360442       4.82884613       7.44401910
H        6.47566742       2.30057420       3.53262310
H        5.54389600       8.59297922       8.98785116
H        4.60647109      10.71192466       9.81616176
H        0.78085274      11.28703287       4.26479773
H        1.68400814       9.17320139       3.38644764
H        1.46918167      13.81563186       8.17619253
