80
Dimer: struct; Energy: -4906.06228 eV
C       -1.29972200       1.48833600      -0.03228100
C       -0.45010500       2.63965400       0.01843500
C        0.99654200       2.45238200       0.05441800
C       -0.76903400       0.15867800      -0.04877100
C        0.67752200      -0.02870400      -0.01297900
C        1.52709100       1.12265000       0.03785500
C        2.93347700       0.94084900       0.07277000
C        3.48023700      -0.37253000       0.05696900
C        3.79427800       2.07240500       0.12351100
C        5.26507800       1.88272800       0.16006300
C        1.24802600      -1.29258500      -0.02698300
C        2.64560500      -1.46904700       0.00777700
C        1.86805800       3.52983300       0.10418700
C        3.26457400       3.34539700       0.13880400
C        4.95087500      -0.56291500       0.09346700
N        5.75909100       0.57580800       0.14293500
O        6.06925500       2.83065500       0.20492200
O        5.48910000      -1.68427500       0.08194900
C       -1.02041300       3.90352800       0.03216900
C       -2.41794600       4.08003500      -0.00262400
C       -2.70602800       1.67000700      -0.06716000
C       -3.25245200       2.98347100      -0.05156500
C       -3.56691500       0.53850500      -0.11766500
C       -3.03687800      -0.73433100      -0.13279200
C       -1.64041100      -0.91883000      -0.09829200
C       -4.72314700       3.17392200      -0.08803700
C       -5.03773600       0.72818300      -0.15412500
N       -5.53143900       2.03522700      -0.13722100
O       -5.26133100       4.29529300      -0.07673500
O       -5.84203300      -0.21964700      -0.19870900
H        0.62972700      -2.20233100      -0.06573200
H        3.07286500      -2.48716200      -0.00439800
H        1.49989900       4.56697900       0.11841200
H        3.93550500       4.22152900       0.17822500
H        6.75033500       0.44779700       0.16755800
H       -0.40199700       4.81321100       0.07071000
H       -2.84532000       5.09816700       0.00933800
H       -3.70773700      -1.61056600      -0.17200800
H       -1.27202900      -1.95588300      -0.11238600
H       -6.52266300       2.16338500      -0.16179200
C       12.59532556       6.28911772       6.74467424
C       11.68286767       5.38801579       7.38137686
C       10.81007646       4.56095923       6.55471727
C       12.67499156       6.40089842       5.31952496
C       11.80242793       5.57380533       4.49280429
C       10.88990410       4.67280305       5.12956385
C       10.04137341       3.86862832       4.32613936
C       10.10562436       3.96507656       2.90813720
C        9.12784688       2.96728572       4.94016116
C        8.24029001       2.12614938       4.10034063
C       11.83570622       5.63934769       3.10800724
C       10.99118263       4.83880137       2.31335029
C        9.90679982       3.67085038       7.11571220
C        9.06543601       2.87363410       6.31444755
C        9.21842004       3.12425015       2.06775982
N        8.33648591       2.25287059       2.71215109
O        7.42146123       1.32006914       4.57682006
O        9.22728280       3.16271839       0.82449448
C       11.64966390       5.32216477       8.76607122
C       12.49416906       6.12264355       9.56074631
C       13.44381935       7.09331160       7.54794752
C       13.37948174       6.99647849       8.96586645
C       14.35721314       7.99485338       6.93401906
C       14.41924958       8.08835499       5.55972343
C       13.57801966       7.29111054       4.75842217
C       14.26668308       7.83733621       9.80632922
C       15.24471646       8.83606636       7.77385242
N       15.14845140       8.70895082       9.16200483
O       14.25794723       7.79868868      11.04958009
O       16.06339267       9.64237946       7.29752109
H       12.52263898       6.31868096       2.58069082
H       11.03880207       4.91145175       1.21257248
H        9.81509780       3.55559307       8.20645586
H        8.35525199       2.17303086       6.78784322
H        7.73837957       1.68604162       2.14599609
H       10.96282703       4.64263517       9.29327285
H       12.44676933       6.04991211      10.66158590
H       15.12927171       8.78909008       5.08620852
H       13.66946008       7.40628508       3.66766265
H       15.74646364       9.27575232       9.72828272
