80
Dimer: struct; Energy: -4906.06228 eV
C       -1.29972200       1.48833600      -0.03228100
C       -0.45010500       2.63965400       0.01843500
C        0.99654200       2.45238200       0.05441800
C       -0.76903400       0.15867800      -0.04877100
C        0.67752200      -0.02870400      -0.01297900
C        1.52709100       1.12265000       0.03785500
C        2.93347700       0.94084900       0.07277000
C        3.48023700      -0.37253000       0.05696900
C        3.79427800       2.07240500       0.12351100
C        5.26507800       1.88272800       0.16006300
C        1.24802600      -1.29258500      -0.02698300
C        2.64560500      -1.46904700       0.00777700
C        1.86805800       3.52983300       0.10418700
C        3.26457400       3.34539700       0.13880400
C        4.95087500      -0.56291500       0.09346700
N        5.75909100       0.57580800       0.14293500
O        6.06925500       2.83065500       0.20492200
O        5.48910000      -1.68427500       0.08194900
C       -1.02041300       3.90352800       0.03216900
C       -2.41794600       4.08003500      -0.00262400
C       -2.70602800       1.67000700      -0.06716000
C       -3.25245200       2.98347100      -0.05156500
C       -3.56691500       0.53850500      -0.11766500
C       -3.03687800      -0.73433100      -0.13279200
C       -1.64041100      -0.91883000      -0.09829200
C       -4.72314700       3.17392200      -0.08803700
C       -5.03773600       0.72818300      -0.15412500
N       -5.53143900       2.03522700      -0.13722100
O       -5.26133100       4.29529300      -0.07673500
O       -5.84203300      -0.21964700      -0.19870900
H        0.62972700      -2.20233100      -0.06573200
H        3.07286500      -2.48716200      -0.00439800
H        1.49989900       4.56697900       0.11841200
H        3.93550500       4.22152900       0.17822500
H        6.75033500       0.44779700       0.16755800
H       -0.40199700       4.81321100       0.07071000
H       -2.84532000       5.09816700       0.00933800
H       -3.70773700      -1.61056600      -0.17200800
H       -1.27202900      -1.95588300      -0.11238600
H       -6.52266300       2.16338500      -0.16179200
C        8.76613293       1.73189626       3.67506850
C        9.07878693       0.41275228       3.21456775
C        9.34401493      -0.63593135       4.19388888
C        8.70647399       2.05023373       5.06969896
C        8.97148803       1.00164695       6.04906134
C        9.28425303      -0.31745524       5.58850181
C        9.54206064      -1.33711235       6.54035624
C        9.48749343      -1.04069027       7.93079392
C        9.85465993      -2.65411730       6.10246170
C       10.12435819      -3.72072166       7.09754162
C        8.92778700       1.25153971       7.41240647
C        9.18446848       0.23591885       8.35485171
C        9.65201946      -1.93131072       3.80653471
C        9.90756930      -2.94162363       4.75491966
C        9.75703911      -2.10677729       8.92636323
N       10.06006821      -3.38585834       8.45257500
O       10.40282904      -4.89020744       6.77811153
O        9.72467083      -1.91061059      10.15426306
C        9.12225642       0.16265237       1.85134445
C        8.86555509       1.17820444       0.90888904
C        8.50836119       2.75156942       2.72336590
C        8.56279299       2.45478883       1.33305351
C        8.19598382       4.06866004       3.16116338
C        8.14331022       4.35584443       4.50876500
C        8.39873061       3.34558297       5.45717548
C        8.29326967       3.52088968       0.33739708
C        7.92637219       5.13529901       2.16606923
N        7.99050860       4.80007254       0.81111457
O        8.32543448       3.32464086      -0.89048504
O        7.64815999       6.30488134       2.48534695
H        8.69116321       2.25158229       7.80655991
H        9.14282921       0.46297242       9.43465278
H        9.70776814      -2.21609278       2.74483490
H       10.15050070      -3.96487823       4.41840212
H       10.24180201      -4.10459707       9.12335458
H        9.35869014      -0.83749013       1.45731273
H        8.90696775       0.95119039      -0.17098781
H        7.90058164       5.37913998       4.84540506
H        8.34315809       3.63015985       6.51892430
H        7.80884411       5.51872293       0.14022496
