80
Dimer: struct; Energy: -4906.06228 eV
C       -1.29972200       1.48833600      -0.03228100
C       -0.45010500       2.63965400       0.01843500
C        0.99654200       2.45238200       0.05441800
C       -0.76903400       0.15867800      -0.04877100
C        0.67752200      -0.02870400      -0.01297900
C        1.52709100       1.12265000       0.03785500
C        2.93347700       0.94084900       0.07277000
C        3.48023700      -0.37253000       0.05696900
C        3.79427800       2.07240500       0.12351100
C        5.26507800       1.88272800       0.16006300
C        1.24802600      -1.29258500      -0.02698300
C        2.64560500      -1.46904700       0.00777700
C        1.86805800       3.52983300       0.10418700
C        3.26457400       3.34539700       0.13880400
C        4.95087500      -0.56291500       0.09346700
N        5.75909100       0.57580800       0.14293500
O        6.06925500       2.83065500       0.20492200
O        5.48910000      -1.68427500       0.08194900
C       -1.02041300       3.90352800       0.03216900
C       -2.41794600       4.08003500      -0.00262400
C       -2.70602800       1.67000700      -0.06716000
C       -3.25245200       2.98347100      -0.05156500
C       -3.56691500       0.53850500      -0.11766500
C       -3.03687800      -0.73433100      -0.13279200
C       -1.64041100      -0.91883000      -0.09829200
C       -4.72314700       3.17392200      -0.08803700
C       -5.03773600       0.72818300      -0.15412500
N       -5.53143900       2.03522700      -0.13722100
O       -5.26133100       4.29529300      -0.07673500
O       -5.84203300      -0.21964700      -0.19870900
H        0.62972700      -2.20233100      -0.06573200
H        3.07286500      -2.48716200      -0.00439800
H        1.49989900       4.56697900       0.11841200
H        3.93550500       4.22152900       0.17822500
H        6.75033500       0.44779700       0.16755800
H       -0.40199700       4.81321100       0.07071000
H       -2.84532000       5.09816700       0.00933800
H       -3.70773700      -1.61056600      -0.17200800
H       -1.27202900      -1.95588300      -0.11238600
H       -6.52266300       2.16338500      -0.16179200
C        3.19168083       7.17101435       7.17709021
C        3.02861784       6.92129884       5.77673065
C        2.26908339       5.75120086       5.34879227
C        2.63002279       6.30447486       8.16882689
C        1.87035455       5.13451180       7.74103260
C        1.70742176       4.88477943       6.34065613
C        0.96902344       3.74737629       5.92439390
C        0.40292932       2.87428401       6.89465567
C        0.79612548       3.48216422       4.53740405
C        0.02403148       2.29280790       4.10166509
C        1.30356808       4.26046394       8.65637928
C        0.57070730       3.13165978       8.23889829
C        2.07872913       5.45903801       4.00665820
C        1.34466751       4.32823906       3.59687876
C       -0.36927047       1.68482419       6.45962981
N       -0.51445694       1.46225468       5.08786672
O       -0.16198032       2.00715800       2.90538656
O       -0.88803145       0.88484428       7.25849542
C        3.59507708       7.79534792       4.86131847
C        4.32789583       8.92415224       5.27874062
C        3.93004086       8.30829078       7.59343654
C        4.49580703       9.18127696       6.62296560
C        4.10319035       8.57345516       8.98040483
C        3.55464515       7.72709477       9.92064511
C        2.82049898       6.59637500       9.51094716
C        5.26807151      10.37078871       7.05795405
C        4.87537180       9.76277631       9.41614848
N        5.41353883      10.59326695       8.42971351
O        5.78663423      11.17086222       6.25906873
O        5.06169395      10.04839771      10.61237904
H        1.40597656       4.41734358       9.74096870
H        0.13016472       2.45225013       8.98961944
H        2.49419070       6.09992487       3.21414892
H        1.20860497       4.11949777       2.52113540
H       -1.03485466       0.66063134       4.79436370
H        3.49242237       7.63847392       3.77674506
H        4.76832434       9.60377199       4.52805818
H        3.69081931       7.93563090      10.99644563
H        2.40504940       5.95528174      10.30327534
H        5.93399943      11.39489925       8.72307274
