80
Dimer: struct; Energy: -4906.06228 eV
C       -1.29972200       1.48833600      -0.03228100
C       -0.45010500       2.63965400       0.01843500
C        0.99654200       2.45238200       0.05441800
C       -0.76903400       0.15867800      -0.04877100
C        0.67752200      -0.02870400      -0.01297900
C        1.52709100       1.12265000       0.03785500
C        2.93347700       0.94084900       0.07277000
C        3.48023700      -0.37253000       0.05696900
C        3.79427800       2.07240500       0.12351100
C        5.26507800       1.88272800       0.16006300
C        1.24802600      -1.29258500      -0.02698300
C        2.64560500      -1.46904700       0.00777700
C        1.86805800       3.52983300       0.10418700
C        3.26457400       3.34539700       0.13880400
C        4.95087500      -0.56291500       0.09346700
N        5.75909100       0.57580800       0.14293500
O        6.06925500       2.83065500       0.20492200
O        5.48910000      -1.68427500       0.08194900
C       -1.02041300       3.90352800       0.03216900
C       -2.41794600       4.08003500      -0.00262400
C       -2.70602800       1.67000700      -0.06716000
C       -3.25245200       2.98347100      -0.05156500
C       -3.56691500       0.53850500      -0.11766500
C       -3.03687800      -0.73433100      -0.13279200
C       -1.64041100      -0.91883000      -0.09829200
C       -4.72314700       3.17392200      -0.08803700
C       -5.03773600       0.72818300      -0.15412500
N       -5.53143900       2.03522700      -0.13722100
O       -5.26133100       4.29529300      -0.07673500
O       -5.84203300      -0.21964700      -0.19870900
H        0.62972700      -2.20233100      -0.06573200
H        3.07286500      -2.48716200      -0.00439800
H        1.49989900       4.56697900       0.11841200
H        3.93550500       4.22152900       0.17822500
H        6.75033500       0.44779700       0.16755800
H       -0.40199700       4.81321100       0.07071000
H       -2.84532000       5.09816700       0.00933800
H       -3.70773700      -1.61056600      -0.17200800
H       -1.27202900      -1.95588300      -0.11238600
H       -6.52266300       2.16338500      -0.16179200
C       -0.30476487      11.37432268       3.06085181
C        0.55967022      12.15358995       2.22691609
C        1.69828996      11.50572426       1.58429002
C       -0.08281149       9.97719027       3.28141880
C        1.05560696       9.32921098       2.63873410
C        1.92007951      10.10855415       1.80490016
C        3.02700773       9.47894061       1.18000901
C        3.26437568       8.09145978       1.38668255
C        3.89750867      10.23639968       0.34786968
C        5.05522160       9.57836978      -0.30578428
C        1.31980516       7.97942989       2.81581162
C        2.42043267       7.35761350       2.19328642
C        2.56904268      12.20991050       0.76647024
C        3.66761872      11.58112840       0.14740993
C        4.42182839       7.43282465       0.73333909
N        5.25101262       8.21417019      -0.07555084
O        5.85152624      10.18560294      -1.04364970
O        4.68211421       6.22471433       0.87471731
C        0.29546507      13.50323737       2.04953288
C       -0.80513938      14.12507195       2.67199199
C       -1.41162676      12.00379877       3.68577907
C       -1.64883985      13.39119772       3.47874240
C       -2.28204742      11.24647171       4.51812369
C       -2.05177327       9.90181184       4.71848129
C       -0.95331458       9.27296189       4.09937995
C       -2.80631281      14.04991821       4.13211001
C       -3.43972198      11.90453054       5.17185886
N       -3.63538392      13.26868850       4.94124694
O       -3.06669337      15.25797559       3.99054028
O       -4.23594392      11.29748899       5.90996068
H        0.67947498       7.34619166       3.44859872
H        2.60718369       6.28092672       2.35180176
H        2.43292160      13.28465277       0.57200859
H        4.34521035      12.16615098      -0.49906347
H        6.03122009       7.77052605      -0.51602100
H        0.93575490      14.13633137       1.41654959
H       -0.99210506      15.20176392       2.51336462
H       -2.72920037       9.31671771       5.36511478
H       -0.81692602       8.19825977       4.29379283
H       -4.41552383      13.71247217       5.38169102
