80
Dimer: struct; Energy: -4906.06228 eV
C       -1.29972200       1.48833600      -0.03228100
C       -0.45010500       2.63965400       0.01843500
C        0.99654200       2.45238200       0.05441800
C       -0.76903400       0.15867800      -0.04877100
C        0.67752200      -0.02870400      -0.01297900
C        1.52709100       1.12265000       0.03785500
C        2.93347700       0.94084900       0.07277000
C        3.48023700      -0.37253000       0.05696900
C        3.79427800       2.07240500       0.12351100
C        5.26507800       1.88272800       0.16006300
C        1.24802600      -1.29258500      -0.02698300
C        2.64560500      -1.46904700       0.00777700
C        1.86805800       3.52983300       0.10418700
C        3.26457400       3.34539700       0.13880400
C        4.95087500      -0.56291500       0.09346700
N        5.75909100       0.57580800       0.14293500
O        6.06925500       2.83065500       0.20492200
O        5.48910000      -1.68427500       0.08194900
C       -1.02041300       3.90352800       0.03216900
C       -2.41794600       4.08003500      -0.00262400
C       -2.70602800       1.67000700      -0.06716000
C       -3.25245200       2.98347100      -0.05156500
C       -3.56691500       0.53850500      -0.11766500
C       -3.03687800      -0.73433100      -0.13279200
C       -1.64041100      -0.91883000      -0.09829200
C       -4.72314700       3.17392200      -0.08803700
C       -5.03773600       0.72818300      -0.15412500
N       -5.53143900       2.03522700      -0.13722100
O       -5.26133100       4.29529300      -0.07673500
O       -5.84203300      -0.21964700      -0.19870900
H        0.62972700      -2.20233100      -0.06573200
H        3.07286500      -2.48716200      -0.00439800
H        1.49989900       4.56697900       0.11841200
H        3.93550500       4.22152900       0.17822500
H        6.75033500       0.44779700       0.16755800
H       -0.40199700       4.81321100       0.07071000
H       -2.84532000       5.09816700       0.00933800
H       -3.70773700      -1.61056600      -0.17200800
H       -1.27202900      -1.95588300      -0.11238600
H       -6.52266300       2.16338500      -0.16179200
C        4.43892642       9.05625775       1.35000071
C        5.78198601       9.37271271       0.96789930
C        6.71282001       9.85566817       1.98252002
C        3.98425847       9.20051005       2.69994901
C        4.91500196       9.68325528       3.71463661
C        6.25802082       9.99980762       3.33245531
C        7.16313036      10.46925985       4.31865183
C        6.73043012      10.61922097       5.66566435
C        8.50178008      10.78913969       3.95856047
C        9.44862258      11.28013099       4.98957108
C        4.53077955       9.84248563       5.03754438
C        5.43288178      10.30907421       6.01431499
C        8.02507890      10.17775167       1.67082054
C        8.92135771      10.64384438       2.65312080
C        7.67671605      11.11010798       6.69713299
N        8.98175109      11.41246717       6.29987648
O       10.63026618      11.57614411       4.73783073
O        7.35906196      11.26220331       7.89012501
C        6.16641268       9.21328659      -0.35483150
C        5.26438076       8.74668110      -1.33160246
C        3.53378392       8.58686411       0.36394588
C        3.96683403       8.43681189      -0.98288818
C        2.19504860       8.26718207       0.72389740
C        1.77577395       8.41273920       2.02938636
C        2.67200505       8.87870524       3.01172830
C        3.02054214       7.94593213      -2.01444734
C        1.24816913       7.77627169      -0.30714468
N        1.71540066       7.64381938      -1.61731394
O        3.33828546       7.79364427      -3.20738081
O        0.06643302       7.48048304      -0.05560555
H        3.50803141       9.61017164       5.37138470
H        5.09994220      10.42645435       7.06056095
H        8.41290438      10.08075267       0.64534611
H        9.96105179      10.89302391       2.37697683
H        9.61976356      11.74335892       6.99486462
H        7.18925660       9.44543899      -0.68851172
H        5.59729922       8.62906315      -2.37788909
H        0.73601740       8.16377652       2.30561337
H        2.28437036       8.97589839       4.03724071
H        1.07748390       7.31298382      -2.31241340
