80
Dimer: struct; Energy: -4906.06228 eV
C       -1.29972200       1.48833600      -0.03228100
C       -0.45010500       2.63965400       0.01843500
C        0.99654200       2.45238200       0.05441800
C       -0.76903400       0.15867800      -0.04877100
C        0.67752200      -0.02870400      -0.01297900
C        1.52709100       1.12265000       0.03785500
C        2.93347700       0.94084900       0.07277000
C        3.48023700      -0.37253000       0.05696900
C        3.79427800       2.07240500       0.12351100
C        5.26507800       1.88272800       0.16006300
C        1.24802600      -1.29258500      -0.02698300
C        2.64560500      -1.46904700       0.00777700
C        1.86805800       3.52983300       0.10418700
C        3.26457400       3.34539700       0.13880400
C        4.95087500      -0.56291500       0.09346700
N        5.75909100       0.57580800       0.14293500
O        6.06925500       2.83065500       0.20492200
O        5.48910000      -1.68427500       0.08194900
C       -1.02041300       3.90352800       0.03216900
C       -2.41794600       4.08003500      -0.00262400
C       -2.70602800       1.67000700      -0.06716000
C       -3.25245200       2.98347100      -0.05156500
C       -3.56691500       0.53850500      -0.11766500
C       -3.03687800      -0.73433100      -0.13279200
C       -1.64041100      -0.91883000      -0.09829200
C       -4.72314700       3.17392200      -0.08803700
C       -5.03773600       0.72818300      -0.15412500
N       -5.53143900       2.03522700      -0.13722100
O       -5.26133100       4.29529300      -0.07673500
O       -5.84203300      -0.21964700      -0.19870900
H        0.62972700      -2.20233100      -0.06573200
H        3.07286500      -2.48716200      -0.00439800
H        1.49989900       4.56697900       0.11841200
H        3.93550500       4.22152900       0.17822500
H        6.75033500       0.44779700       0.16755800
H       -0.40199700       4.81321100       0.07071000
H       -2.84532000       5.09816700       0.00933800
H       -3.70773700      -1.61056600      -0.17200800
H       -1.27202900      -1.95588300      -0.11238600
H       -6.52266300       2.16338500      -0.16179200
C       11.46193160       6.21753019       0.37438673
C       10.07338377       6.54693948       0.49005322
C        9.69534495       7.83399800       1.06426584
C       12.48946537       7.11608535       0.80643425
C       12.11157305       8.40317785       1.38046182
C       10.72300378       8.73248734       1.49621260
C       10.35525029       9.98366751       2.05433248
C       11.36161181      10.89036989       2.48940469
C        8.98070829      10.32914957       2.17781700
C        8.59569299      11.63747193       2.76144519
C       13.06310989       9.31323951       1.81569915
C       12.69377633      10.55517813       2.36955413
C        8.36675956       8.20683921       1.20126234
C        8.00520186       9.45054561       1.75618786
C       10.97731483      12.19880766       3.07306652
N        9.61618023      12.49737352       3.17563977
O        7.41255767      11.99714298       2.89600415
O       11.80933746      13.03335632       3.47122974
C        9.12179368       5.63715522       0.05463820
C        9.49107002       4.39525432      -0.49923986
C       11.82977284       4.96644704      -0.18364664
C       10.82321648       4.06008640      -0.61880723
C       13.20428478       4.62077988      -0.30695554
C       14.17951173       5.49955205       0.11491103
C       13.81803717       6.74328360       0.66972468
C       11.20747272       2.75156777      -1.20247812
C       13.58930212       3.31240269      -0.89050696
N       12.56859488       2.45281487      -1.30482316
O       10.37543611       1.91713633      -1.60082713
O       14.77237847       2.95248779      -1.02487489
H       14.14010376       9.09788434       1.74401048
H       13.47259380      11.26094282       2.70807597
H        7.54782343       7.54465208       0.88147015
H        6.93924140       9.72179206       1.85346773
H        9.35686498      13.37917900       3.56900026
H        8.04482489       5.85271391       0.12618949
H        8.71229168       3.68947086      -0.83799996
H       15.24552885       5.22831983       0.01786441
H       14.63679565       7.40557928       0.98969631
H       12.82776394       1.57095756      -1.69815802
