80
Dimer: struct; Energy: -4906.06228 eV
C       -1.29972200       1.48833600      -0.03228100
C       -0.45010500       2.63965400       0.01843500
C        0.99654200       2.45238200       0.05441800
C       -0.76903400       0.15867800      -0.04877100
C        0.67752200      -0.02870400      -0.01297900
C        1.52709100       1.12265000       0.03785500
C        2.93347700       0.94084900       0.07277000
C        3.48023700      -0.37253000       0.05696900
C        3.79427800       2.07240500       0.12351100
C        5.26507800       1.88272800       0.16006300
C        1.24802600      -1.29258500      -0.02698300
C        2.64560500      -1.46904700       0.00777700
C        1.86805800       3.52983300       0.10418700
C        3.26457400       3.34539700       0.13880400
C        4.95087500      -0.56291500       0.09346700
N        5.75909100       0.57580800       0.14293500
O        6.06925500       2.83065500       0.20492200
O        5.48910000      -1.68427500       0.08194900
C       -1.02041300       3.90352800       0.03216900
C       -2.41794600       4.08003500      -0.00262400
C       -2.70602800       1.67000700      -0.06716000
C       -3.25245200       2.98347100      -0.05156500
C       -3.56691500       0.53850500      -0.11766500
C       -3.03687800      -0.73433100      -0.13279200
C       -1.64041100      -0.91883000      -0.09829200
C       -4.72314700       3.17392200      -0.08803700
C       -5.03773600       0.72818300      -0.15412500
N       -5.53143900       2.03522700      -0.13722100
O       -5.26133100       4.29529300      -0.07673500
O       -5.84203300      -0.21964700      -0.19870900
H        0.62972700      -2.20233100      -0.06573200
H        3.07286500      -2.48716200      -0.00439800
H        1.49989900       4.56697900       0.11841200
H        3.93550500       4.22152900       0.17822500
H        6.75033500       0.44779700       0.16755800
H       -0.40199700       4.81321100       0.07071000
H       -2.84532000       5.09816700       0.00933800
H       -3.70773700      -1.61056600      -0.17200800
H       -1.27202900      -1.95588300      -0.11238600
H       -6.52266300       2.16338500      -0.16179200
C        3.80427669       6.39205345       1.84157185
C        4.45291191       5.30588966       2.51200072
C        5.88054565       5.09221713       2.29902404
C        4.51777426       7.27415337       0.96823743
C        5.94537028       7.06070306       0.75533858
C        6.59393213       5.97444971       1.42570326
C        7.98180822       5.76657179       1.21887247
C        8.70842927       6.63240250       0.35485882
C        8.64420455       4.69259507       1.87596994
C       10.09557409       4.47483583       1.65992959
C        6.68751651       7.88300201      -0.07899319
C        8.06607570       7.67324828      -0.28185298
C        6.56145012       4.05681176       2.92129613
C        7.94016763       3.85334726       2.71342082
C       10.15975461       6.41524293       0.13840753
N       10.77019811       5.34874255       0.80345335
O       10.73082738       3.55466365       2.20492041
O       10.84921873       7.13691325      -0.60395239
C        3.71100632       4.48371960       3.34652444
C        2.33249128       4.69344979       3.54943644
C        2.41649087       6.59998770       2.04828743
C        1.69022153       5.73414517       2.91249784
C        1.75396016       7.67379646       1.39104945
C        2.45826795       8.51274791       0.55355884
C        3.83696826       8.30941472       0.34573374
C        0.23882639       5.95125226       3.12897470
C        0.30255335       7.89150234       1.60702147
N       -0.37174668       7.01757185       2.46373460
O       -0.45056024       5.22969915       3.87150407
O       -0.33288076       8.81145788       1.06188992
H        6.22632629       8.72829521      -0.61211222
H        8.63265415       8.34360099      -0.95183327
H        6.04918885       3.35743611       3.59943869
H        8.45733293       3.02069831       3.22189449
H       11.74837509       5.20212420       0.65774599
H        4.17235731       3.63857651       3.87975547
H        1.76583816       4.02324342       4.21959467
H        1.94115050       9.34532937       0.04485939
H        4.34940900       9.00858808      -0.33245794
H       -1.34993515       7.16404335       2.60949689
