80
Dimer: struct; Energy: -4906.06228 eV
C       -1.29972200       1.48833600      -0.03228100
C       -0.45010500       2.63965400       0.01843500
C        0.99654200       2.45238200       0.05441800
C       -0.76903400       0.15867800      -0.04877100
C        0.67752200      -0.02870400      -0.01297900
C        1.52709100       1.12265000       0.03785500
C        2.93347700       0.94084900       0.07277000
C        3.48023700      -0.37253000       0.05696900
C        3.79427800       2.07240500       0.12351100
C        5.26507800       1.88272800       0.16006300
C        1.24802600      -1.29258500      -0.02698300
C        2.64560500      -1.46904700       0.00777700
C        1.86805800       3.52983300       0.10418700
C        3.26457400       3.34539700       0.13880400
C        4.95087500      -0.56291500       0.09346700
N        5.75909100       0.57580800       0.14293500
O        6.06925500       2.83065500       0.20492200
O        5.48910000      -1.68427500       0.08194900
C       -1.02041300       3.90352800       0.03216900
C       -2.41794600       4.08003500      -0.00262400
C       -2.70602800       1.67000700      -0.06716000
C       -3.25245200       2.98347100      -0.05156500
C       -3.56691500       0.53850500      -0.11766500
C       -3.03687800      -0.73433100      -0.13279200
C       -1.64041100      -0.91883000      -0.09829200
C       -4.72314700       3.17392200      -0.08803700
C       -5.03773600       0.72818300      -0.15412500
N       -5.53143900       2.03522700      -0.13722100
O       -5.26133100       4.29529300      -0.07673500
O       -5.84203300      -0.21964700      -0.19870900
H        0.62972700      -2.20233100      -0.06573200
H        3.07286500      -2.48716200      -0.00439800
H        1.49989900       4.56697900       0.11841200
H        3.93550500       4.22152900       0.17822500
H        6.75033500       0.44779700       0.16755800
H       -0.40199700       4.81321100       0.07071000
H       -2.84532000       5.09816700       0.00933800
H       -3.70773700      -1.61056600      -0.17200800
H       -1.27202900      -1.95588300      -0.11238600
H       -6.52266300       2.16338500      -0.16179200
C        4.30384011       6.92598312       4.50124719
C        3.81480476       5.84684485       3.69734464
C        4.12565533       4.47529216       4.08640537
C        5.08919280       6.69639230       5.67615199
C        5.39993534       5.32495224       6.06539301
C        4.91097156       4.24585306       5.26138618
C        5.21297309       2.91241521       5.63944811
C        5.99188686       2.66360374       6.80372761
C        4.73623805       1.82664659       4.85344416
C        5.05185411       0.43203809       5.24843742
C        6.15593663       5.04222451       7.19304241
C        6.45378158       3.71622558       7.56531837
C        3.67929139       3.39080125       3.34643479
C        3.98128785       2.06756989       3.72502270
C        6.30782915       1.26930696       7.19929256
N        5.81962515       0.23331567       6.39883697
O        4.66463505      -0.55861960       4.60350539
O        6.98326853       0.98717098       8.20500027
C        3.05860871       6.12938268       2.56988855
C        2.76071736       7.45532692       2.19760323
C        4.00194984       8.25937109       4.12328389
C        3.22286055       8.50783605       2.95911247
C        4.47883918       9.34521203       4.90909556
C        5.23388116       9.10392988       6.03735709
C        5.53580985       7.78075997       6.41605311
C        2.90689628       9.90217416       2.56346948
C        4.16329587      10.73984085       4.51404573
N        3.39530974      10.93823367       3.36372838
O        2.23127770      10.18426766       1.55788236
O        4.55067349      11.73059472       5.15872274
H        6.54997621       5.84315005       7.83700205
H        7.05806685       3.52001301       8.46842270
H        3.07346064       3.52519242       2.43741150
H        3.61282099       1.22255850       3.11715952
H        6.03242346      -0.70654046       6.66519221
H        2.66444671       5.32835652       1.92611815
H        2.15623300       7.65164702       1.29458525
H        5.60258280       9.94889339       6.64520018
H        6.14172475       7.64613099       7.32496732
H        3.18247567      11.87803840       3.09722895
