80
Dimer: struct; Energy: -4906.06228 eV
C       -1.29972200       1.48833600      -0.03228100
C       -0.45010500       2.63965400       0.01843500
C        0.99654200       2.45238200       0.05441800
C       -0.76903400       0.15867800      -0.04877100
C        0.67752200      -0.02870400      -0.01297900
C        1.52709100       1.12265000       0.03785500
C        2.93347700       0.94084900       0.07277000
C        3.48023700      -0.37253000       0.05696900
C        3.79427800       2.07240500       0.12351100
C        5.26507800       1.88272800       0.16006300
C        1.24802600      -1.29258500      -0.02698300
C        2.64560500      -1.46904700       0.00777700
C        1.86805800       3.52983300       0.10418700
C        3.26457400       3.34539700       0.13880400
C        4.95087500      -0.56291500       0.09346700
N        5.75909100       0.57580800       0.14293500
O        6.06925500       2.83065500       0.20492200
O        5.48910000      -1.68427500       0.08194900
C       -1.02041300       3.90352800       0.03216900
C       -2.41794600       4.08003500      -0.00262400
C       -2.70602800       1.67000700      -0.06716000
C       -3.25245200       2.98347100      -0.05156500
C       -3.56691500       0.53850500      -0.11766500
C       -3.03687800      -0.73433100      -0.13279200
C       -1.64041100      -0.91883000      -0.09829200
C       -4.72314700       3.17392200      -0.08803700
C       -5.03773600       0.72818300      -0.15412500
N       -5.53143900       2.03522700      -0.13722100
O       -5.26133100       4.29529300      -0.07673500
O       -5.84203300      -0.21964700      -0.19870900
H        0.62972700      -2.20233100      -0.06573200
H        3.07286500      -2.48716200      -0.00439800
H        1.49989900       4.56697900       0.11841200
H        3.93550500       4.22152900       0.17822500
H        6.75033500       0.44779700       0.16755800
H       -0.40199700       4.81321100       0.07071000
H       -2.84532000       5.09816700       0.00933800
H       -3.70773700      -1.61056600      -0.17200800
H       -1.27202900      -1.95588300      -0.11238600
H       -6.52266300       2.16338500      -0.16179200
C        7.03721074       6.10146528       0.74987190
C        6.79487998       5.52525839      -0.53823358
C        5.83164349       6.16224606      -1.43018385
C        6.36065164       7.28525442       1.18668207
C        5.39758244       7.92239952       0.29479576
C        5.15520336       7.34608164      -0.99325614
C        4.21889462       7.96518769      -1.86056571
C        3.53644614       9.14230135      -1.44483972
C        3.96429076       7.40760358      -3.14440714
C        2.98519337       8.05471028      -4.05170383
C        4.71282259       9.07037389       0.66401778
C        3.78347999       9.68245801      -0.20041817
C        5.55639060       5.64910069      -2.68868908
C        4.62562141       6.26678640      -3.54752841
C        2.55729412       9.78990464      -2.35160649
N        2.33777604       9.20888017      -3.60323448
O        2.71932916       7.61606584      -5.18492307
O        1.92946307      10.81940875      -2.04629267
C        7.47971832       4.37751309      -0.90768522
C        8.40906957       3.76543093      -0.04332105
C        7.97340822       5.48246365       1.61721770
C        8.65582721       4.30552479       1.20112959
C        8.22790438       6.03984270       2.90117029
C        7.56628949       7.18056942       3.30401989
C        6.63561985       7.79835075       2.44521230
C        9.63501289       3.65783741       2.10790521
C        9.20694663       5.39267539       3.80851380
N        9.85437442       4.23865235       3.35967031
O       10.26298214       2.62846275       1.80247912
O        9.47270678       5.83104856       4.94185559
H        4.87086009       9.54395260       1.64492567
H        3.25230783      10.59612595       0.11946388
H        6.05508572       4.74137920      -3.06119424
H        4.42567444       5.83658004      -4.54465097
H        1.67787391       9.64513539      -4.21460044
H        7.32174630       3.90414130      -1.88871066
H        8.94047420       2.85183070      -0.36320873
H        7.76601209       7.61076122       4.30122768
H        6.13671652       8.70600887       2.81754960
H       10.51426597       3.80226592       3.97095033
