80
Dimer: struct; Energy: -4906.06228 eV
C       -1.29972200       1.48833600      -0.03228100
C       -0.45010500       2.63965400       0.01843500
C        0.99654200       2.45238200       0.05441800
C       -0.76903400       0.15867800      -0.04877100
C        0.67752200      -0.02870400      -0.01297900
C        1.52709100       1.12265000       0.03785500
C        2.93347700       0.94084900       0.07277000
C        3.48023700      -0.37253000       0.05696900
C        3.79427800       2.07240500       0.12351100
C        5.26507800       1.88272800       0.16006300
C        1.24802600      -1.29258500      -0.02698300
C        2.64560500      -1.46904700       0.00777700
C        1.86805800       3.52983300       0.10418700
C        3.26457400       3.34539700       0.13880400
C        4.95087500      -0.56291500       0.09346700
N        5.75909100       0.57580800       0.14293500
O        6.06925500       2.83065500       0.20492200
O        5.48910000      -1.68427500       0.08194900
C       -1.02041300       3.90352800       0.03216900
C       -2.41794600       4.08003500      -0.00262400
C       -2.70602800       1.67000700      -0.06716000
C       -3.25245200       2.98347100      -0.05156500
C       -3.56691500       0.53850500      -0.11766500
C       -3.03687800      -0.73433100      -0.13279200
C       -1.64041100      -0.91883000      -0.09829200
C       -4.72314700       3.17392200      -0.08803700
C       -5.03773600       0.72818300      -0.15412500
N       -5.53143900       2.03522700      -0.13722100
O       -5.26133100       4.29529300      -0.07673500
O       -5.84203300      -0.21964700      -0.19870900
H        0.62972700      -2.20233100      -0.06573200
H        3.07286500      -2.48716200      -0.00439800
H        1.49989900       4.56697900       0.11841200
H        3.93550500       4.22152900       0.17822500
H        6.75033500       0.44779700       0.16755800
H       -0.40199700       4.81321100       0.07071000
H       -2.84532000       5.09816700       0.00933800
H       -3.70773700      -1.61056600      -0.17200800
H       -1.27202900      -1.95588300      -0.11238600
H       -6.52266300       2.16338500      -0.16179200
C        9.96659647       6.19710106       0.33023523
C        9.44435389       5.10606720      -0.43583401
C        9.59155196       3.74689362       0.07419838
C       10.62902149       5.99122547       1.58271293
C       10.77610843       4.63218732       2.09290710
C       10.25394900       3.54117783       1.32673778
C       10.39686263       2.21977913       1.82239233
C       11.05194067       1.99455797       3.06509452
C        9.88474870       1.12246830       1.07565258
C       10.03401402      -0.25955968       1.59361453
C       11.40820886       4.37245734       3.29957835
C       11.54817027       3.05836242       3.78859728
C        9.10596766       2.65175349      -0.62422394
C        9.24979918       1.34053169      -0.12876276
C       11.20151289       0.61285524       3.58363132
N       10.68389770      -0.43513681       2.81803520
O        9.60829804      -1.25934305       0.98824053
O       11.76360439       0.35133348       4.66202206
C        8.81202661       5.36564085      -1.64231694
C        8.67201475       6.67968483      -2.13134541
C        9.82378053       7.51844808      -0.16530805
C        9.16848681       7.74334906      -1.40789396
C       10.33606996       8.61580212       0.58124911
C       10.97108955       8.39736182       1.78553873
C       11.11485089       7.08621545       2.28109709
C        9.01890301       9.12508870      -1.92651312
C       10.18688333       9.99783945       0.06323591
N        9.53674841      10.17311468      -1.16109885
O        8.45661993       9.38659349      -3.00479679
O       10.61278639      10.99768448       0.66836366
H       11.82282321       5.18315022       3.91788645
H       12.05609413       2.88046181       4.75276646
H        8.59114142       2.76793835      -1.59007602
H        8.85346654       0.48661158      -0.70586812
H       10.78457494      -1.36651078       3.16726921
H        8.39726595       4.55487359      -2.26044069
H        8.16389653       6.85771652      -3.09545380
H       11.36765225       9.25121209       2.36264809
H       11.62974696       6.96977851       3.24686483
H        9.43604249      11.10442954      -1.51047568
