80
Dimer: struct; Energy: -4906.06228 eV
C       -1.29972200       1.48833600      -0.03228100
C       -0.45010500       2.63965400       0.01843500
C        0.99654200       2.45238200       0.05441800
C       -0.76903400       0.15867800      -0.04877100
C        0.67752200      -0.02870400      -0.01297900
C        1.52709100       1.12265000       0.03785500
C        2.93347700       0.94084900       0.07277000
C        3.48023700      -0.37253000       0.05696900
C        3.79427800       2.07240500       0.12351100
C        5.26507800       1.88272800       0.16006300
C        1.24802600      -1.29258500      -0.02698300
C        2.64560500      -1.46904700       0.00777700
C        1.86805800       3.52983300       0.10418700
C        3.26457400       3.34539700       0.13880400
C        4.95087500      -0.56291500       0.09346700
N        5.75909100       0.57580800       0.14293500
O        6.06925500       2.83065500       0.20492200
O        5.48910000      -1.68427500       0.08194900
C       -1.02041300       3.90352800       0.03216900
C       -2.41794600       4.08003500      -0.00262400
C       -2.70602800       1.67000700      -0.06716000
C       -3.25245200       2.98347100      -0.05156500
C       -3.56691500       0.53850500      -0.11766500
C       -3.03687800      -0.73433100      -0.13279200
C       -1.64041100      -0.91883000      -0.09829200
C       -4.72314700       3.17392200      -0.08803700
C       -5.03773600       0.72818300      -0.15412500
N       -5.53143900       2.03522700      -0.13722100
O       -5.26133100       4.29529300      -0.07673500
O       -5.84203300      -0.21964700      -0.19870900
H        0.62972700      -2.20233100      -0.06573200
H        3.07286500      -2.48716200      -0.00439800
H        1.49989900       4.56697900       0.11841200
H        3.93550500       4.22152900       0.17822500
H        6.75033500       0.44779700       0.16755800
H       -0.40199700       4.81321100       0.07071000
H       -2.84532000       5.09816700       0.00933800
H       -3.70773700      -1.61056600      -0.17200800
H       -1.27202900      -1.95588300      -0.11238600
H       -6.52266300       2.16338500      -0.16179200
C        6.78324347      10.28321158       7.36478186
C        7.38713336      10.22663748       6.06783519
C        6.71619896       9.48556239       5.00491098
C        5.53940208       9.63289472       7.64733920
C        4.86832030       8.89198466       6.58450390
C        5.47231546       8.83534530       5.28760396
C        4.82022211       8.11503311       4.25410657
C        3.58338175       7.46211268       4.51503067
C        5.40452347       8.04708456       2.95875067
C        4.72293381       7.29389384       1.87768391
C        3.66204866       8.24270581       6.79993789
C        3.01734475       7.52819446       5.77066409
C        7.25381995       9.39629995       3.72979779
C        6.60322818       8.67983649       2.70564820
C        2.90127397       6.70881352       3.43446414
N        3.51026144       6.66788861       2.17755934
O        5.18241430       7.19761926       0.72577790
O        1.81945013       6.11756568       3.59984320
C        8.59319054      10.87605098       5.85218385
C        9.23789571      11.59058352       6.88138851
C        7.43522352      11.00341618       8.39829278
C        8.67190068      11.65638429       8.13700310
C        6.85111490      11.07122394       9.69374374
C        5.65249006      10.43823360       9.94653067
C        5.00180889       9.72186960       8.92242772
C        9.35409434      12.40970854       9.21758625
C        7.53275937      11.82434773      10.77484821
N        8.74529967      12.45043983      10.47460310
O       10.43580302      13.00112153       9.05211819
O        7.07353748      11.92047806      11.92686267
H        3.16562030       8.26242453       7.78207992
H        2.05731535       7.02045843       5.97017645
H        8.20752648       9.88180870       3.47262019
H        7.05403786       8.62511713       1.69912641
H        3.05076020       6.16022885       1.44906916
H        9.08942155      10.85643286       4.86993294
H       10.19787431      12.09855389       6.68191019
H        5.20167589      10.49271669      10.95309694
H        4.04815684       9.23618098       9.17940477
H        9.20493406      12.95809423      11.20300989
