80
Dimer: struct; Energy: -4906.06228 eV
C       -1.29972200       1.48833600      -0.03228100
C       -0.45010500       2.63965400       0.01843500
C        0.99654200       2.45238200       0.05441800
C       -0.76903400       0.15867800      -0.04877100
C        0.67752200      -0.02870400      -0.01297900
C        1.52709100       1.12265000       0.03785500
C        2.93347700       0.94084900       0.07277000
C        3.48023700      -0.37253000       0.05696900
C        3.79427800       2.07240500       0.12351100
C        5.26507800       1.88272800       0.16006300
C        1.24802600      -1.29258500      -0.02698300
C        2.64560500      -1.46904700       0.00777700
C        1.86805800       3.52983300       0.10418700
C        3.26457400       3.34539700       0.13880400
C        4.95087500      -0.56291500       0.09346700
N        5.75909100       0.57580800       0.14293500
O        6.06925500       2.83065500       0.20492200
O        5.48910000      -1.68427500       0.08194900
C       -1.02041300       3.90352800       0.03216900
C       -2.41794600       4.08003500      -0.00262400
C       -2.70602800       1.67000700      -0.06716000
C       -3.25245200       2.98347100      -0.05156500
C       -3.56691500       0.53850500      -0.11766500
C       -3.03687800      -0.73433100      -0.13279200
C       -1.64041100      -0.91883000      -0.09829200
C       -4.72314700       3.17392200      -0.08803700
C       -5.03773600       0.72818300      -0.15412500
N       -5.53143900       2.03522700      -0.13722100
O       -5.26133100       4.29529300      -0.07673500
O       -5.84203300      -0.21964700      -0.19870900
H        0.62972700      -2.20233100      -0.06573200
H        3.07286500      -2.48716200      -0.00439800
H        1.49989900       4.56697900       0.11841200
H        3.93550500       4.22152900       0.17822500
H        6.75033500       0.44779700       0.16755800
H       -0.40199700       4.81321100       0.07071000
H       -2.84532000       5.09816700       0.00933800
H       -3.70773700      -1.61056600      -0.17200800
H       -1.27202900      -1.95588300      -0.11238600
H       -6.52266300       2.16338500      -0.16179200
C        5.07265570       7.37212663       4.17387699
C        5.40128063       8.65690273       3.63414528
C        6.17210301       8.73044124       2.39738415
C        5.47937122       6.15785130       3.53355679
C        6.24999720       6.23125912       2.29676084
C        6.57869555       7.51606604       1.75713488
C        7.32797753       7.58781058       0.55479487
C        7.74132904       6.39242011      -0.09662106
C        7.66451502       8.85513315       0.00288182
C        8.44809405       8.93060821      -1.25444608
C        6.67080571       5.08882470       1.63281061
C        7.41495234       5.16425367       0.43860359
C        6.51953414       9.94641457       1.82850963
C        7.26397573      10.01380715       0.63404872
C        8.52486519       6.46716826      -1.35393506
N        8.83337104       7.73217274      -1.86082564
O        8.77325035      10.00707841      -1.78620153
O        8.91490299       5.45927434      -1.96979821
C        4.98033796       9.79935604       4.29779054
C        4.23618042       9.72397838       5.49194779
C        4.32345979       7.30026962       5.37614964
C        3.91008770       8.49579642       6.02718670
C        3.98707623       6.03299276       5.92826325
C        4.38790500       4.87453677       5.29691902
C        5.13222912       4.94185480       4.10243164
C        3.12653781       8.42110394       7.28457135
C        3.20356579       5.95751803       7.18565597
N        2.81823522       7.15612298       7.79167489
O        2.73633325       9.42900876       7.90029122
O        2.87857500       4.88113110       7.71766657
H        6.43859131       4.08307466       2.01487900
H        7.73713657       4.23821057      -0.06923397
H        6.22617668      10.90172517       2.28974526
H        7.52686338      10.99585067       0.20301471
H        9.36147478       7.78286323      -2.70823032
H        5.21243896      10.80505794       3.91550826
H        3.91375441      10.65001090       5.99977614
H        4.12524161       3.89241154       5.72798217
H        5.42579886       3.98667959       3.64108580
H        2.29016870       7.10558235       8.63910903
