80
Dimer: struct; Energy: -4906.06228 eV
C       -1.29972200       1.48833600      -0.03228100
C       -0.45010500       2.63965400       0.01843500
C        0.99654200       2.45238200       0.05441800
C       -0.76903400       0.15867800      -0.04877100
C        0.67752200      -0.02870400      -0.01297900
C        1.52709100       1.12265000       0.03785500
C        2.93347700       0.94084900       0.07277000
C        3.48023700      -0.37253000       0.05696900
C        3.79427800       2.07240500       0.12351100
C        5.26507800       1.88272800       0.16006300
C        1.24802600      -1.29258500      -0.02698300
C        2.64560500      -1.46904700       0.00777700
C        1.86805800       3.52983300       0.10418700
C        3.26457400       3.34539700       0.13880400
C        4.95087500      -0.56291500       0.09346700
N        5.75909100       0.57580800       0.14293500
O        6.06925500       2.83065500       0.20492200
O        5.48910000      -1.68427500       0.08194900
C       -1.02041300       3.90352800       0.03216900
C       -2.41794600       4.08003500      -0.00262400
C       -2.70602800       1.67000700      -0.06716000
C       -3.25245200       2.98347100      -0.05156500
C       -3.56691500       0.53850500      -0.11766500
C       -3.03687800      -0.73433100      -0.13279200
C       -1.64041100      -0.91883000      -0.09829200
C       -4.72314700       3.17392200      -0.08803700
C       -5.03773600       0.72818300      -0.15412500
N       -5.53143900       2.03522700      -0.13722100
O       -5.26133100       4.29529300      -0.07673500
O       -5.84203300      -0.21964700      -0.19870900
H        0.62972700      -2.20233100      -0.06573200
H        3.07286500      -2.48716200      -0.00439800
H        1.49989900       4.56697900       0.11841200
H        3.93550500       4.22152900       0.17822500
H        6.75033500       0.44779700       0.16755800
H       -0.40199700       4.81321100       0.07071000
H       -2.84532000       5.09816700       0.00933800
H       -3.70773700      -1.61056600      -0.17200800
H       -1.27202900      -1.95588300      -0.11238600
H       -6.52266300       2.16338500      -0.16179200
C        7.38708069       5.00763283       9.30518252
C        6.65653993       6.19489917       8.97858930
C        6.07344298       6.32508113       7.64734788
C        7.56106454       3.94482904       8.36174741
C        6.97788889       4.07481111       7.03060949
C        6.24745575       5.26215320       6.70403058
C        5.68044725       5.38890731       5.40995678
C        5.84218773       4.34365457       4.45840684
C        4.95117865       6.56113118       5.06640111
C        4.35808431       6.69410007       3.71321064
C        7.11386136       3.07798207       6.07619372
C        6.54908242       3.20762593       4.79175167
C        5.35607447       7.45184043       7.27490505
C        4.79428043       7.57427835       5.98848820
C        5.24935595       4.47595195       3.10511361
N        4.54119380       5.64377264       2.81006874
O        3.71039913       7.69305603       3.35283655
O        5.35580909       3.59807428       2.23031902
C        6.52025644       7.19163694       9.93292569
C        7.08497210       7.06202604      11.21735592
C        7.95412403       4.88079728      10.59912690
C        7.79202985       5.92609466      11.55048852
C        8.68360909       3.70871117      10.94269590
C        8.84043766       2.69583886      10.02032178
C        8.27859084       2.81815943       8.73396412
C        8.38488798       5.79385560      12.90384644
C        9.27678853       3.57578093      12.29587335
N        9.09330989       4.62617378      13.19886995
O        8.27823454       6.67165255      13.77868370
O        9.92472401       2.57701136      12.65629265
H        7.66749553       2.15058196       6.28797468
H        6.67292977       2.39804656       4.05114342
H        5.20015806       8.29021562       7.97077310
H        4.22767121       8.48280793       5.71860361
H        4.14152768       5.73322658       1.89802556
H        5.96641735       8.11891011       9.72109170
H        6.96099717       7.87150161      11.95814193
H        9.40721558       1.78732658      10.29003590
H        8.43448067       1.97996734       8.03789283
H        9.49296139       4.53687518      14.11093227
