80
Dimer: struct; Energy: -4906.06228 eV
C       -1.29972200       1.48833600      -0.03228100
C       -0.45010500       2.63965400       0.01843500
C        0.99654200       2.45238200       0.05441800
C       -0.76903400       0.15867800      -0.04877100
C        0.67752200      -0.02870400      -0.01297900
C        1.52709100       1.12265000       0.03785500
C        2.93347700       0.94084900       0.07277000
C        3.48023700      -0.37253000       0.05696900
C        3.79427800       2.07240500       0.12351100
C        5.26507800       1.88272800       0.16006300
C        1.24802600      -1.29258500      -0.02698300
C        2.64560500      -1.46904700       0.00777700
C        1.86805800       3.52983300       0.10418700
C        3.26457400       3.34539700       0.13880400
C        4.95087500      -0.56291500       0.09346700
N        5.75909100       0.57580800       0.14293500
O        6.06925500       2.83065500       0.20492200
O        5.48910000      -1.68427500       0.08194900
C       -1.02041300       3.90352800       0.03216900
C       -2.41794600       4.08003500      -0.00262400
C       -2.70602800       1.67000700      -0.06716000
C       -3.25245200       2.98347100      -0.05156500
C       -3.56691500       0.53850500      -0.11766500
C       -3.03687800      -0.73433100      -0.13279200
C       -1.64041100      -0.91883000      -0.09829200
C       -4.72314700       3.17392200      -0.08803700
C       -5.03773600       0.72818300      -0.15412500
N       -5.53143900       2.03522700      -0.13722100
O       -5.26133100       4.29529300      -0.07673500
O       -5.84203300      -0.21964700      -0.19870900
H        0.62972700      -2.20233100      -0.06573200
H        3.07286500      -2.48716200      -0.00439800
H        1.49989900       4.56697900       0.11841200
H        3.93550500       4.22152900       0.17822500
H        6.75033500       0.44779700       0.16755800
H       -0.40199700       4.81321100       0.07071000
H       -2.84532000       5.09816700       0.00933800
H       -3.70773700      -1.61056600      -0.17200800
H       -1.27202900      -1.95588300      -0.11238600
H       -6.52266300       2.16338500      -0.16179200
C        8.97516433       9.46600808       0.18507430
C        8.76970133       8.10747435      -0.21757362
C        8.73089376       7.06392706       0.80157118
C        9.14343667       9.82866572       1.55986735
C        9.10446644       8.78528567       2.57906150
C        8.89911690       7.42675008       2.17634542
C        8.86128042       6.41210368       3.16692773
C        9.02632366       6.75233640       4.53848269
C        8.65834318       5.05630122       2.78668025
C        8.61873530       3.99491214       3.82227210
C        9.26123271       9.07731538       3.92561603
C        9.22299053       8.06654513       4.90666404
C        8.53530207       5.73156139       0.47071870
C        8.49833563       4.72634163       1.45744999
C        8.98679338       5.69150036       5.57454202
N        8.78524076       4.37341350       5.15696111
O        8.44497835       2.79284616       3.55371207
O        9.12443319       5.92502238       6.78853948
C        8.61265648       7.81533623      -1.56397979
C        8.65085531       8.82604881      -2.54503264
C        9.01305219      10.48066164      -0.80536001
C        8.84776763      10.14014521      -2.17676062
C        9.21621865      11.83646304      -0.42522855
C        9.37633890      12.16604034       0.90406443
C        9.33927159      11.16091510       1.89082655
C        8.88731655      11.20098355      -3.21290900
C        9.25591834      12.89785354      -1.46084220
N        9.08914921      12.51906904      -2.79542182
O        8.74945955      10.96745694      -4.42687087
O        9.42993812      14.09991396      -1.19245631
H        9.42101503      10.10849587       4.27571507
H        9.35075289       8.32756518       5.97193527
H        8.40204494       5.41214205      -0.57409183
H        8.34101449       3.67304012       1.16570403
H        8.75856604       3.65819810       5.85503931
H        8.45267171       6.78413305      -1.91393948
H        8.52288902       8.56514314      -3.61036698
H        9.53387361      13.21931258       1.19591692
H        9.47262560      11.48008200       2.93568637
H        9.11584892      13.23417393      -3.49360901
