80
Dimer: struct; Energy: -4906.06228 eV
C       -1.29972200       1.48833600      -0.03228100
C       -0.45010500       2.63965400       0.01843500
C        0.99654200       2.45238200       0.05441800
C       -0.76903400       0.15867800      -0.04877100
C        0.67752200      -0.02870400      -0.01297900
C        1.52709100       1.12265000       0.03785500
C        2.93347700       0.94084900       0.07277000
C        3.48023700      -0.37253000       0.05696900
C        3.79427800       2.07240500       0.12351100
C        5.26507800       1.88272800       0.16006300
C        1.24802600      -1.29258500      -0.02698300
C        2.64560500      -1.46904700       0.00777700
C        1.86805800       3.52983300       0.10418700
C        3.26457400       3.34539700       0.13880400
C        4.95087500      -0.56291500       0.09346700
N        5.75909100       0.57580800       0.14293500
O        6.06925500       2.83065500       0.20492200
O        5.48910000      -1.68427500       0.08194900
C       -1.02041300       3.90352800       0.03216900
C       -2.41794600       4.08003500      -0.00262400
C       -2.70602800       1.67000700      -0.06716000
C       -3.25245200       2.98347100      -0.05156500
C       -3.56691500       0.53850500      -0.11766500
C       -3.03687800      -0.73433100      -0.13279200
C       -1.64041100      -0.91883000      -0.09829200
C       -4.72314700       3.17392200      -0.08803700
C       -5.03773600       0.72818300      -0.15412500
N       -5.53143900       2.03522700      -0.13722100
O       -5.26133100       4.29529300      -0.07673500
O       -5.84203300      -0.21964700      -0.19870900
H        0.62972700      -2.20233100      -0.06573200
H        3.07286500      -2.48716200      -0.00439800
H        1.49989900       4.56697900       0.11841200
H        3.93550500       4.22152900       0.17822500
H        6.75033500       0.44779700       0.16755800
H       -0.40199700       4.81321100       0.07071000
H       -2.84532000       5.09816700       0.00933800
H       -3.70773700      -1.61056600      -0.17200800
H       -1.27202900      -1.95588300      -0.11238600
H       -6.52266300       2.16338500      -0.16179200
C        8.28968726      -1.05477529       3.23457659
C        9.28312495      -1.75560017       2.47834889
C       10.01182848      -1.04394344       1.43350968
C        7.99176644       0.32479714       2.99392090
C        8.72049392       1.03656857       1.94928937
C        9.71384149       0.33566086       1.19301125
C       10.42242958       1.02730205       0.17727131
C       10.14093013       2.39853498      -0.07697045
C       11.41317219       0.34817495      -0.58508520
C       12.15439817       1.07108675      -1.64741689
C        8.47454163       2.37285803       1.67197356
C        9.18059897       3.05645182       0.66214352
C       10.98433523      -1.67103786       0.66937555
C       11.68617118      -0.98079236      -0.33882054
C       10.88176969       3.12202279      -1.13908006
N       11.84616777       2.41670083      -1.86351608
O       13.03100356       0.53348444      -2.34729212
O       10.68155022       4.31971051      -1.40875272
C        9.52936843      -3.09173332       2.75571092
C        8.82338076      -3.77533990       3.76552636
C        7.58106119      -1.74628120       4.25024689
C        7.86293296      -3.11740266       4.50438135
C        6.59013580      -1.06730006       5.01249712
C        6.31729139       0.26161210       4.76586390
C        7.01914797       0.95192660       3.75778977
C        7.12207354      -3.84097771       5.56650754
C        5.84883653      -1.79024628       6.07478034
N        6.15745430      -3.13578825       6.29079953
O        7.32246646      -5.03859956       5.83629867
O        4.97202247      -1.25285167       6.77454263
H        7.71945370       2.94668275       2.23054346
H        8.96431895       4.12070960       0.46255440
H       11.24237823      -2.72987594       0.82329422
H       12.45576125      -1.50495087      -0.93236808
H       12.34564088       2.90406660      -2.57944833
H       10.28463423      -3.66539997       2.19720662
H        9.03974502      -4.83959757       3.96534253
H        5.54755814       0.78583228       5.35922837
H        6.76118989       2.01073235       3.60361171
H        5.65802621      -3.62329015       7.00666732
