80
Dimer: struct; Energy: -4906.06228 eV
C       -1.29972200       1.48833600      -0.03228100
C       -0.45010500       2.63965400       0.01843500
C        0.99654200       2.45238200       0.05441800
C       -0.76903400       0.15867800      -0.04877100
C        0.67752200      -0.02870400      -0.01297900
C        1.52709100       1.12265000       0.03785500
C        2.93347700       0.94084900       0.07277000
C        3.48023700      -0.37253000       0.05696900
C        3.79427800       2.07240500       0.12351100
C        5.26507800       1.88272800       0.16006300
C        1.24802600      -1.29258500      -0.02698300
C        2.64560500      -1.46904700       0.00777700
C        1.86805800       3.52983300       0.10418700
C        3.26457400       3.34539700       0.13880400
C        4.95087500      -0.56291500       0.09346700
N        5.75909100       0.57580800       0.14293500
O        6.06925500       2.83065500       0.20492200
O        5.48910000      -1.68427500       0.08194900
C       -1.02041300       3.90352800       0.03216900
C       -2.41794600       4.08003500      -0.00262400
C       -2.70602800       1.67000700      -0.06716000
C       -3.25245200       2.98347100      -0.05156500
C       -3.56691500       0.53850500      -0.11766500
C       -3.03687800      -0.73433100      -0.13279200
C       -1.64041100      -0.91883000      -0.09829200
C       -4.72314700       3.17392200      -0.08803700
C       -5.03773600       0.72818300      -0.15412500
N       -5.53143900       2.03522700      -0.13722100
O       -5.26133100       4.29529300      -0.07673500
O       -5.84203300      -0.21964700      -0.19870900
H        0.62972700      -2.20233100      -0.06573200
H        3.07286500      -2.48716200      -0.00439800
H        1.49989900       4.56697900       0.11841200
H        3.93550500       4.22152900       0.17822500
H        6.75033500       0.44779700       0.16755800
H       -0.40199700       4.81321100       0.07071000
H       -2.84532000       5.09816700       0.00933800
H       -3.70773700      -1.61056600      -0.17200800
H       -1.27202900      -1.95588300      -0.11238600
H       -6.52266300       2.16338500      -0.16179200
C        1.18630645       2.57072493       7.52920619
C        1.60856914       3.68974999       8.31624585
C        2.13723542       4.87128547       7.64271858
C        1.26838899       2.57920743       6.09984179
C        1.79683760       3.76069289       5.42623098
C        2.21919607       4.87964713       6.21332839
C        2.73310437       6.02841268       5.55878413
C        2.82255527       6.05625943       4.13914204
C        3.15799590       7.15033757       6.32345642
C        3.69550719       8.35186014       5.63935760
C        1.89959958       3.82566040       4.04482397
C        2.41062939       4.96866022       3.39831480
C        2.56136889       5.98419446       8.35297354
C        3.07136022       7.12356625       7.69935845
C        3.35991205       7.25741554       3.45443308
N        3.76564344       8.33650404       4.24392678
O        4.08278805       9.36317538       6.25134909
O        3.46317904       7.34263075       2.21776766
C        1.50562325       3.62504552       9.69756146
C        0.99458176       2.48211287      10.34409477
C        0.67245116       1.42197145       8.18360335
C        0.58293140       1.39451885       9.60319577
C        0.24775350       0.29990741       7.41902625
C        0.33467147       0.32696401       6.04316552
C        0.84453212       1.46631254       5.38950103
C        0.04558332       0.19332678      10.28798787
C       -0.28967916      -0.90166542       8.10313908
N       -0.35990761      -0.88591802       9.49856460
O       -0.05787031       0.10822697      11.52463578
O       -0.67673878      -1.91314826       7.49129726
H        1.58578739       2.98712834       3.40465306
H        2.48123884       4.99319544       2.29664796
H        2.51467917       6.01693834       9.45213829
H        3.40202334       7.99605515       8.28989611
H        4.12787622       9.14621115       3.78271144
H        1.81927801       4.46373076      10.33761980
H        0.92373449       2.45755919      11.44580352
H        0.00421822      -0.54556986       5.45251947
H        0.89142865       1.43374877       4.29035446
H       -0.72207499      -1.69557525       9.95991391
