80
Dimer: struct; Energy: -4906.06228 eV
C       -1.29972200       1.48833600      -0.03228100
C       -0.45010500       2.63965400       0.01843500
C        0.99654200       2.45238200       0.05441800
C       -0.76903400       0.15867800      -0.04877100
C        0.67752200      -0.02870400      -0.01297900
C        1.52709100       1.12265000       0.03785500
C        2.93347700       0.94084900       0.07277000
C        3.48023700      -0.37253000       0.05696900
C        3.79427800       2.07240500       0.12351100
C        5.26507800       1.88272800       0.16006300
C        1.24802600      -1.29258500      -0.02698300
C        2.64560500      -1.46904700       0.00777700
C        1.86805800       3.52983300       0.10418700
C        3.26457400       3.34539700       0.13880400
C        4.95087500      -0.56291500       0.09346700
N        5.75909100       0.57580800       0.14293500
O        6.06925500       2.83065500       0.20492200
O        5.48910000      -1.68427500       0.08194900
C       -1.02041300       3.90352800       0.03216900
C       -2.41794600       4.08003500      -0.00262400
C       -2.70602800       1.67000700      -0.06716000
C       -3.25245200       2.98347100      -0.05156500
C       -3.56691500       0.53850500      -0.11766500
C       -3.03687800      -0.73433100      -0.13279200
C       -1.64041100      -0.91883000      -0.09829200
C       -4.72314700       3.17392200      -0.08803700
C       -5.03773600       0.72818300      -0.15412500
N       -5.53143900       2.03522700      -0.13722100
O       -5.26133100       4.29529300      -0.07673500
O       -5.84203300      -0.21964700      -0.19870900
H        0.62972700      -2.20233100      -0.06573200
H        3.07286500      -2.48716200      -0.00439800
H        1.49989900       4.56697900       0.11841200
H        3.93550500       4.22152900       0.17822500
H        6.75033500       0.44779700       0.16755800
H       -0.40199700       4.81321100       0.07071000
H       -2.84532000       5.09816700       0.00933800
H       -3.70773700      -1.61056600      -0.17200800
H       -1.27202900      -1.95588300      -0.11238600
H       -6.52266300       2.16338500      -0.16179200
C        3.81876411       9.40227652       4.81902806
C        4.91821585      10.28306065       5.07472220
C        6.12523511      10.16464426       4.26340524
C        3.87103855       8.40883901       3.78934784
C        5.07786868       8.29045711       2.97788981
C        6.17733772       9.17119188       3.23370556
C        7.35081568       9.05631275       2.44507097
C        7.42212760       8.07548304       1.41694246
C        8.45399942       9.92226984       2.68397671
C        9.68137458       9.80245125       1.85950125
C        5.18525981       7.34731105       1.96694532
C        6.35267583       7.23633850       1.18566490
C        7.22103380      10.99000520       4.46569786
C        8.38508103      10.87296087       3.68035297
C        8.64912851       7.95514947       0.59211322
N        9.70855979       8.82566504       0.86073613
O       10.67818449      10.52916161       2.01931564
O        8.77244376       7.11885167      -0.32039234
C        4.81088212      11.22638044       6.08538760
C        3.64350591      11.33741020       6.86664872
C        2.64533080       9.51703543       5.60757238
C        2.57425073      10.49807337       6.63544506
C        1.54218490       8.65096614       5.36889465
C        1.61150495       7.70030007       4.37254718
C        2.77544346       7.58328045       3.58711496
C        1.34723099      10.61843912       7.46035731
C        0.31482928       8.77072600       6.19344135
N        0.28785787       9.74776104       7.19197402
O        1.22386670      11.45488479       8.37270734
O       -0.68194339       8.04391042       6.03392188
H        4.36282321       6.65226578       1.73903522
H        6.41093639       6.47607900       0.38699808
H        7.22032804      11.76555965       5.24667803
H        9.24312907      11.54351038       3.86318244
H       10.53568981       8.74478349       0.30497370
H        5.63331632      11.92151414       6.31306728
H        3.58506553      12.09781505       7.66524347
H        0.75357141       7.02954281       4.18975712
H        2.77642280       6.80772123       2.80616054
H       -0.53918965       9.82872298       7.74784342
