80
Dimer: struct; Energy: -4906.06228 eV
C       -1.29972200       1.48833600      -0.03228100
C       -0.45010500       2.63965400       0.01843500
C        0.99654200       2.45238200       0.05441800
C       -0.76903400       0.15867800      -0.04877100
C        0.67752200      -0.02870400      -0.01297900
C        1.52709100       1.12265000       0.03785500
C        2.93347700       0.94084900       0.07277000
C        3.48023700      -0.37253000       0.05696900
C        3.79427800       2.07240500       0.12351100
C        5.26507800       1.88272800       0.16006300
C        1.24802600      -1.29258500      -0.02698300
C        2.64560500      -1.46904700       0.00777700
C        1.86805800       3.52983300       0.10418700
C        3.26457400       3.34539700       0.13880400
C        4.95087500      -0.56291500       0.09346700
N        5.75909100       0.57580800       0.14293500
O        6.06925500       2.83065500       0.20492200
O        5.48910000      -1.68427500       0.08194900
C       -1.02041300       3.90352800       0.03216900
C       -2.41794600       4.08003500      -0.00262400
C       -2.70602800       1.67000700      -0.06716000
C       -3.25245200       2.98347100      -0.05156500
C       -3.56691500       0.53850500      -0.11766500
C       -3.03687800      -0.73433100      -0.13279200
C       -1.64041100      -0.91883000      -0.09829200
C       -4.72314700       3.17392200      -0.08803700
C       -5.03773600       0.72818300      -0.15412500
N       -5.53143900       2.03522700      -0.13722100
O       -5.26133100       4.29529300      -0.07673500
O       -5.84203300      -0.21964700      -0.19870900
H        0.62972700      -2.20233100      -0.06573200
H        3.07286500      -2.48716200      -0.00439800
H        1.49989900       4.56697900       0.11841200
H        3.93550500       4.22152900       0.17822500
H        6.75033500       0.44779700       0.16755800
H       -0.40199700       4.81321100       0.07071000
H       -2.84532000       5.09816700       0.00933800
H       -3.70773700      -1.61056600      -0.17200800
H       -1.27202900      -1.95588300      -0.11238600
H       -6.52266300       2.16338500      -0.16179200
C        3.23327912      10.72209741       2.06529769
C        3.44265266       9.62710541       2.96369046
C        3.39122944       9.86979089       4.40160997
C        2.97479267      12.04828881       2.53889371
C        2.92316641      12.29104723       3.97671165
C        3.13266406      11.19603789       4.87506175
C        3.08264961      11.43170284       6.27297192
C        2.82693982      12.74255326       6.76332306
C        3.28832072      10.35658561       7.18170418
C        3.23612804      10.60260667       8.64366027
C        2.67657194      13.55429591       4.49290934
C        2.62763418      13.78435788       5.88224398
C        3.58650430       8.84819476       5.31873964
C        3.53613620       9.08604947       6.70667339
C        2.77458204      12.98925685       8.22508593
N        2.98221684      11.90496960       9.08156665
O        3.40754597       9.70534986       9.48794972
O        2.55545551      14.11136393       8.71511279
C        3.68897242       8.36382528       2.44767960
C        3.73788340       8.13371508       1.05839173
C        3.28330428      10.48656946       0.66746311
C        3.53881237       9.17561277       0.17744450
C        3.07787799      11.56167010      -0.24134524
C        2.83023929      12.83209249       0.23402992
C        2.77974728      13.06998781       1.62190837
C        3.59120896       8.92884649      -1.28437169
C        3.13016229      11.31566277      -1.70331933
N        3.38386157      10.01315118      -2.14091808
O        3.81012295       7.80669371      -1.77436402
O        2.95903610      12.21286596      -2.54771578
H        2.51039564      14.42166981       3.83603731
H        2.42935233      14.80064840       6.26577414
H        3.78770814       7.81563246       4.99509271
H        3.69534263       8.25379886       7.41471431
H        2.94700086      12.07094908      10.06684246
H        3.85492878       7.49648266       3.10465919
H        3.93596261       7.11736787       0.67474166
H        2.67121487      13.66448164      -0.47393689
H        2.57867946      14.10248858       1.94578607
H        3.41915253       9.84703636      -3.12616609
