80
Dimer: struct; Energy: -4906.06228 eV
C       -1.29972200       1.48833600      -0.03228100
C       -0.45010500       2.63965400       0.01843500
C        0.99654200       2.45238200       0.05441800
C       -0.76903400       0.15867800      -0.04877100
C        0.67752200      -0.02870400      -0.01297900
C        1.52709100       1.12265000       0.03785500
C        2.93347700       0.94084900       0.07277000
C        3.48023700      -0.37253000       0.05696900
C        3.79427800       2.07240500       0.12351100
C        5.26507800       1.88272800       0.16006300
C        1.24802600      -1.29258500      -0.02698300
C        2.64560500      -1.46904700       0.00777700
C        1.86805800       3.52983300       0.10418700
C        3.26457400       3.34539700       0.13880400
C        4.95087500      -0.56291500       0.09346700
N        5.75909100       0.57580800       0.14293500
O        6.06925500       2.83065500       0.20492200
O        5.48910000      -1.68427500       0.08194900
C       -1.02041300       3.90352800       0.03216900
C       -2.41794600       4.08003500      -0.00262400
C       -2.70602800       1.67000700      -0.06716000
C       -3.25245200       2.98347100      -0.05156500
C       -3.56691500       0.53850500      -0.11766500
C       -3.03687800      -0.73433100      -0.13279200
C       -1.64041100      -0.91883000      -0.09829200
C       -4.72314700       3.17392200      -0.08803700
C       -5.03773600       0.72818300      -0.15412500
N       -5.53143900       2.03522700      -0.13722100
O       -5.26133100       4.29529300      -0.07673500
O       -5.84203300      -0.21964700      -0.19870900
H        0.62972700      -2.20233100      -0.06573200
H        3.07286500      -2.48716200      -0.00439800
H        1.49989900       4.56697900       0.11841200
H        3.93550500       4.22152900       0.17822500
H        6.75033500       0.44779700       0.16755800
H       -0.40199700       4.81321100       0.07071000
H       -2.84532000       5.09816700       0.00933800
H       -3.70773700      -1.61056600      -0.17200800
H       -1.27202900      -1.95588300      -0.11238600
H       -6.52266300       2.16338500      -0.16179200
C       -0.28388874      12.58477182       3.29954486
C       -1.60779029      12.05022473       3.40677546
C       -1.80265638      10.60919931       3.28583715
C        0.85377057      11.74445373       3.07708395
C        0.65906133      10.30347436       2.95631925
C       -0.66488005       9.76899168       3.06344127
C       -0.85456050       8.36812920       2.94597697
C        0.26335016       7.51632864       2.72490653
C       -2.16243355       7.81792842       3.04951045
C       -2.36123781       6.35301845       2.92670295
C        1.72336688       9.44101465       2.74071995
C        1.53085158       8.04996014       2.62461927
C       -3.06142153      10.03529422       3.38102634
C       -3.24602649       8.64329931       3.26379549
C        0.06527165       6.05139728       2.60204196
N       -1.23586703       5.55366816       2.70999618
O       -3.47837464       5.81202085       3.00797703
O        1.00126286       5.25529000       2.40864934
C       -2.67209866      12.91247227       3.62263232
C       -2.47963314      14.30349080       3.73877120
C       -0.09410985      13.98552791       3.41694927
C       -1.21215646      14.83700859       3.63822404
C        1.21369820      14.53584344       3.31319531
C        2.29703246      13.71020200       3.09875972
C        2.11251768      12.31822985       2.98163568
C       -1.01413038      16.30201324       3.76107599
C        1.41249308      16.00078113       3.43591308
N        0.28695841      16.79984482       3.65284932
O       -1.95011022      17.09806676       3.95468177
O        2.52952665      16.54193992       3.35438844
H        2.75577678       9.81224392       2.65267709
H        2.39656039       7.38635749       2.45304634
H       -3.96066950      10.64661715       3.55147456
H       -4.25982574       8.21301731       3.34365910
H       -1.36967882       4.56634909       2.62721189
H       -3.70444705      12.54109826       3.71086542
H       -3.34529729      14.96719117       3.91056117
H        3.31088110      14.14040514       3.01867439
H        3.01160040      11.70672448       2.81106521
H        0.42061689      17.78718469       3.73560577
