80
Dimer: struct; Energy: -4906.06228 eV
C       -1.29972200       1.48833600      -0.03228100
C       -0.45010500       2.63965400       0.01843500
C        0.99654200       2.45238200       0.05441800
C       -0.76903400       0.15867800      -0.04877100
C        0.67752200      -0.02870400      -0.01297900
C        1.52709100       1.12265000       0.03785500
C        2.93347700       0.94084900       0.07277000
C        3.48023700      -0.37253000       0.05696900
C        3.79427800       2.07240500       0.12351100
C        5.26507800       1.88272800       0.16006300
C        1.24802600      -1.29258500      -0.02698300
C        2.64560500      -1.46904700       0.00777700
C        1.86805800       3.52983300       0.10418700
C        3.26457400       3.34539700       0.13880400
C        4.95087500      -0.56291500       0.09346700
N        5.75909100       0.57580800       0.14293500
O        6.06925500       2.83065500       0.20492200
O        5.48910000      -1.68427500       0.08194900
C       -1.02041300       3.90352800       0.03216900
C       -2.41794600       4.08003500      -0.00262400
C       -2.70602800       1.67000700      -0.06716000
C       -3.25245200       2.98347100      -0.05156500
C       -3.56691500       0.53850500      -0.11766500
C       -3.03687800      -0.73433100      -0.13279200
C       -1.64041100      -0.91883000      -0.09829200
C       -4.72314700       3.17392200      -0.08803700
C       -5.03773600       0.72818300      -0.15412500
N       -5.53143900       2.03522700      -0.13722100
O       -5.26133100       4.29529300      -0.07673500
O       -5.84203300      -0.21964700      -0.19870900
H        0.62972700      -2.20233100      -0.06573200
H        3.07286500      -2.48716200      -0.00439800
H        1.49989900       4.56697900       0.11841200
H        3.93550500       4.22152900       0.17822500
H        6.75033500       0.44779700       0.16755800
H       -0.40199700       4.81321100       0.07071000
H       -2.84532000       5.09816700       0.00933800
H       -3.70773700      -1.61056600      -0.17200800
H       -1.27202900      -1.95588300      -0.11238600
H       -6.52266300       2.16338500      -0.16179200
C        0.89761014       8.83207081       8.90301700
C        0.53171120      10.12115762       8.39870810
C        0.22917301      10.26740321       6.97876585
C        0.97468437       7.68282455       8.05261434
C        0.67200650       7.82890213       6.63276759
C        0.30622591       9.11803969       6.12848937
C        0.01199973       9.26044569       4.74814748
C        0.08283857       8.13030552       3.88679644
C       -0.35333736      10.53323309       4.22803882
C       -0.66108071      10.68259763       2.78458798
C        0.73000938       6.75130601       5.76185521
C        0.43696567       6.89681926       4.39126212
C       -0.13054003      11.49098408       6.43436329
C       -0.42208085      11.62866886       5.06267865
C       -0.22479340       8.27895074       2.44332083
N       -0.57916180       9.54677144       1.97491505
O       -0.98607509      11.76750005       2.27015240
O       -0.18064214       7.33007075       1.64023647
C        0.47340261      11.19872791       9.26948919
C        0.76639546      11.05325980      10.64005768
C        1.19187248       8.68956721      10.28324157
C        1.12073735       9.81981405      11.14434083
C        1.55744682       7.41686642      10.80339736
C        1.62623660       6.32168937       9.96845142
C        1.33460774       6.45927686       8.59682009
C        1.42839728       9.67122496      12.58788239
C        1.86528290       7.26751936      12.24684944
N        1.78305050       8.40347941      13.05630915
O        1.38402813      10.62007477      13.39097522
O        2.19055293       6.18274587      12.76136765
H        1.00686812       5.74457654       6.11010505
H        0.49107749       6.02151147       3.72031826
H       -0.20103690      12.39770862       7.05427943
H       -0.70595536      12.61515109       4.65576614
H       -0.78654512       9.64726371       1.00205779
H        0.19632691      12.20537541       8.92115490
H        0.71210711      11.92850998      11.31115700
H        1.91030549       5.33517219      10.37522678
H        1.40515645       5.55271925       7.97669185
H        1.99045299       8.30314287      14.02917605
