80
Dimer: struct; Energy: -4906.06228 eV
C       -1.29972200       1.48833600      -0.03228100
C       -0.45010500       2.63965400       0.01843500
C        0.99654200       2.45238200       0.05441800
C       -0.76903400       0.15867800      -0.04877100
C        0.67752200      -0.02870400      -0.01297900
C        1.52709100       1.12265000       0.03785500
C        2.93347700       0.94084900       0.07277000
C        3.48023700      -0.37253000       0.05696900
C        3.79427800       2.07240500       0.12351100
C        5.26507800       1.88272800       0.16006300
C        1.24802600      -1.29258500      -0.02698300
C        2.64560500      -1.46904700       0.00777700
C        1.86805800       3.52983300       0.10418700
C        3.26457400       3.34539700       0.13880400
C        4.95087500      -0.56291500       0.09346700
N        5.75909100       0.57580800       0.14293500
O        6.06925500       2.83065500       0.20492200
O        5.48910000      -1.68427500       0.08194900
C       -1.02041300       3.90352800       0.03216900
C       -2.41794600       4.08003500      -0.00262400
C       -2.70602800       1.67000700      -0.06716000
C       -3.25245200       2.98347100      -0.05156500
C       -3.56691500       0.53850500      -0.11766500
C       -3.03687800      -0.73433100      -0.13279200
C       -1.64041100      -0.91883000      -0.09829200
C       -4.72314700       3.17392200      -0.08803700
C       -5.03773600       0.72818300      -0.15412500
N       -5.53143900       2.03522700      -0.13722100
O       -5.26133100       4.29529300      -0.07673500
O       -5.84203300      -0.21964700      -0.19870900
H        0.62972700      -2.20233100      -0.06573200
H        3.07286500      -2.48716200      -0.00439800
H        1.49989900       4.56697900       0.11841200
H        3.93550500       4.22152900       0.17822500
H        6.75033500       0.44779700       0.16755800
H       -0.40199700       4.81321100       0.07071000
H       -2.84532000       5.09816700       0.00933800
H       -3.70773700      -1.61056600      -0.17200800
H       -1.27202900      -1.95588300      -0.11238600
H       -6.52266300       2.16338500      -0.16179200
C        8.74690019       5.60709173       4.20802138
C        7.63122687       5.12140437       4.96256437
C        7.20880731       3.73526089       4.79133035
C        9.45936331       4.77026270       3.29041278
C        9.03717393       3.38412650       3.11924064
C        7.92141774       2.89852362       3.87372429
C        7.51062296       1.55100591       3.70748372
C        8.20585562       0.70352054       2.80052140
C        6.40416762       1.04987971       4.44815984
C        5.97423041      -0.35923134       4.27459120
C        9.68932913       2.52757097       2.24512833
C        9.27823996       1.18957624       2.08280165
C        6.13548649       3.21014153       5.49499918
C        5.73023976       1.87107250       5.32724600
C        7.77648832      -0.70563361       2.62650136
N        6.68512320      -1.15627355       3.37362657
O        5.01565686      -0.85581895       4.89250387
O        8.34288182      -1.49522955       1.84996821
C        6.97917929       5.97770549       5.83686390
C        7.39024276       7.31566024       5.99924510
C        9.15773017       6.95451118       4.37414489
C        8.46245116       7.80165169       5.28131087
C       10.26402826       7.45579244       3.63333749
C       10.93762325       6.63437212       2.75423684
C       10.53251213       5.29530237       2.58652454
C        8.89177799       9.21088248       5.45535867
C       10.69391311       8.86494718       3.80684089
N        9.98296877       9.66167399       4.70804949
O        8.32550146      10.00038699       6.23205436
O       11.65228768       9.36174258       3.18879913
H       10.55079523       2.86226736       1.64739310
H        9.81588702       0.52945025       1.37964675
H        5.56225852       3.82057335       6.20928058
H        4.87184548       1.47896525       5.90058784
H        6.39549472      -2.10599062       3.25653426
H        6.11784719       5.64283012       6.43470370
H        6.85276297       7.97584152       6.70256618
H       11.79592853       7.02643925       2.18067526
H       11.10551212       4.68472040       1.87221121
H       10.27245757      10.61142329       4.82520633
