80
Dimer: struct; Energy: -4906.06228 eV
C       -1.29972200       1.48833600      -0.03228100
C       -0.45010500       2.63965400       0.01843500
C        0.99654200       2.45238200       0.05441800
C       -0.76903400       0.15867800      -0.04877100
C        0.67752200      -0.02870400      -0.01297900
C        1.52709100       1.12265000       0.03785500
C        2.93347700       0.94084900       0.07277000
C        3.48023700      -0.37253000       0.05696900
C        3.79427800       2.07240500       0.12351100
C        5.26507800       1.88272800       0.16006300
C        1.24802600      -1.29258500      -0.02698300
C        2.64560500      -1.46904700       0.00777700
C        1.86805800       3.52983300       0.10418700
C        3.26457400       3.34539700       0.13880400
C        4.95087500      -0.56291500       0.09346700
N        5.75909100       0.57580800       0.14293500
O        6.06925500       2.83065500       0.20492200
O        5.48910000      -1.68427500       0.08194900
C       -1.02041300       3.90352800       0.03216900
C       -2.41794600       4.08003500      -0.00262400
C       -2.70602800       1.67000700      -0.06716000
C       -3.25245200       2.98347100      -0.05156500
C       -3.56691500       0.53850500      -0.11766500
C       -3.03687800      -0.73433100      -0.13279200
C       -1.64041100      -0.91883000      -0.09829200
C       -4.72314700       3.17392200      -0.08803700
C       -5.03773600       0.72818300      -0.15412500
N       -5.53143900       2.03522700      -0.13722100
O       -5.26133100       4.29529300      -0.07673500
O       -5.84203300      -0.21964700      -0.19870900
H        0.62972700      -2.20233100      -0.06573200
H        3.07286500      -2.48716200      -0.00439800
H        1.49989900       4.56697900       0.11841200
H        3.93550500       4.22152900       0.17822500
H        6.75033500       0.44779700       0.16755800
H       -0.40199700       4.81321100       0.07071000
H       -2.84532000       5.09816700       0.00933800
H       -3.70773700      -1.61056600      -0.17200800
H       -1.27202900      -1.95588300      -0.11238600
H       -6.52266300       2.16338500      -0.16179200
C       11.94396005       4.68326894       3.79406804
C       10.57065777       4.30500542       3.64945870
C        9.69786672       5.11280310       2.80396960
C       12.48429359       5.83198798       3.13196812
C       11.61169152       6.63971239       2.28635340
C       10.23836538       6.26146873       2.14187274
C        9.38970770       7.04656881       1.31992978
C        9.90785491       8.19177096       0.65344942
C        8.02210711       6.68703081       1.16381109
C        7.13426496       7.50780003       0.30436926
C       12.07964594       7.76261773       1.62064450
C       11.23344581       8.53994204       0.80499358
C        8.35977675       4.79488623       2.62687684
C        7.51973309       5.57714223       1.80964119
C        9.02061697       9.01292400      -0.20612675
N        7.68448920       8.62379465      -0.33139122
O        5.93113554       7.24574141       0.12806424
O        9.41362919      10.02430569      -0.81433357
C       10.10264806       3.18204191       4.31484368
C       10.94879536       2.40468892       5.13045440
C       12.79264101       3.89831516       4.61595955
C       12.27426301       2.75309124       5.28211004
C       14.16019920       4.25790984       4.77232522
C       14.66219448       5.36793604       4.12647530
C       13.82225900       6.15014720       3.30916000
C       13.16148820       1.93188141       6.14175616
C       15.04802981       3.43718223       5.63185096
N       14.49757114       2.32111697       6.26729253
O       12.76849973       0.92038905       6.74977419
O       16.25110032       3.69927440       5.80846394
H       13.12814934       8.08640576       1.70570246
H       11.63274859       9.42928591       0.28645501
H        7.90662213       3.92048031       3.11828340
H        6.45776682       5.30085689       1.68633763
H        7.08625264       9.17706781      -0.91066630
H        9.05416426       2.85823330       4.22954054
H       10.54961748       1.51516137       5.64889644
H       15.72412490       5.64444071       4.24987068
H       14.27516230       7.02466436       2.81775263
H       15.09568039       1.76778091       6.84663505
