80
Dimer: struct; Energy: -4906.06228 eV
C       -1.29972200       1.48833600      -0.03228100
C       -0.45010500       2.63965400       0.01843500
C        0.99654200       2.45238200       0.05441800
C       -0.76903400       0.15867800      -0.04877100
C        0.67752200      -0.02870400      -0.01297900
C        1.52709100       1.12265000       0.03785500
C        2.93347700       0.94084900       0.07277000
C        3.48023700      -0.37253000       0.05696900
C        3.79427800       2.07240500       0.12351100
C        5.26507800       1.88272800       0.16006300
C        1.24802600      -1.29258500      -0.02698300
C        2.64560500      -1.46904700       0.00777700
C        1.86805800       3.52983300       0.10418700
C        3.26457400       3.34539700       0.13880400
C        4.95087500      -0.56291500       0.09346700
N        5.75909100       0.57580800       0.14293500
O        6.06925500       2.83065500       0.20492200
O        5.48910000      -1.68427500       0.08194900
C       -1.02041300       3.90352800       0.03216900
C       -2.41794600       4.08003500      -0.00262400
C       -2.70602800       1.67000700      -0.06716000
C       -3.25245200       2.98347100      -0.05156500
C       -3.56691500       0.53850500      -0.11766500
C       -3.03687800      -0.73433100      -0.13279200
C       -1.64041100      -0.91883000      -0.09829200
C       -4.72314700       3.17392200      -0.08803700
C       -5.03773600       0.72818300      -0.15412500
N       -5.53143900       2.03522700      -0.13722100
O       -5.26133100       4.29529300      -0.07673500
O       -5.84203300      -0.21964700      -0.19870900
H        0.62972700      -2.20233100      -0.06573200
H        3.07286500      -2.48716200      -0.00439800
H        1.49989900       4.56697900       0.11841200
H        3.93550500       4.22152900       0.17822500
H        6.75033500       0.44779700       0.16755800
H       -0.40199700       4.81321100       0.07071000
H       -2.84532000       5.09816700       0.00933800
H       -3.70773700      -1.61056600      -0.17200800
H       -1.27202900      -1.95588300      -0.11238600
H       -6.52266300       2.16338500      -0.16179200
C        3.35466672       3.64938247      10.15839546
C        4.12614669       3.50480287       8.96095248
C        3.43415033       3.37509065       7.68288014
C        1.92324638       3.67029430      10.13624694
C        1.23118061       3.54078220       8.85828414
C        2.00271085       3.39608713       7.66088193
C        1.33021542       3.27004327       6.41828180
C       -0.09174689       3.28865937       6.37541940
C        2.07924179       3.12527816       5.21745935
C        1.37636612       2.99340971       3.91778918
C       -0.15304439       3.55444495       8.77581847
C       -0.81740566       3.42899738       7.53950898
C        4.12881969       3.23222569       6.49126702
C        3.45739142       3.10723985       5.25877582
C       -0.79522570       3.15687775       5.07614812
N       -0.02070972       3.01678167       3.92165761
O        1.97414774       2.86407206       2.83464216
O       -2.03481690       3.16588854       4.97319411
C        5.51029625       3.49139607       9.04321774
C        6.17468324       3.61687198      10.27946588
C        4.02701199       3.77538893      11.40097008
C        5.44893450       3.75695249      11.44347374
C        3.27806579       3.91992297      12.60187118
C        1.89994217       3.93776802      12.56020151
C        1.22847307       3.81290415      11.32776957
C        6.15249521       3.88871007      12.74277657
C        3.98094952       4.05170109      13.90156749
N        5.37803134       4.02852733      13.89734929
O        7.39208294       3.87991150      12.84567221
O        3.38330022       4.18076980      14.98481246
H       -0.78161288       3.66371399       9.67269910
H       -1.92091494       3.44311944       7.50310404
H        5.22897574       3.21140318       6.46600211
H        4.03575543       2.99471350       4.32489007
H       -0.49457856       2.92792573       3.04580904
H        6.13876496       3.38232832       8.14623490
H        7.27825004       3.60296964      10.31595490
H        1.32145538       4.05008817      13.49407231
H        0.12832364       3.83357781      11.35280353
H        5.85203011       4.11732551      14.77313082
