80
Dimer: struct; Energy: -4906.06228 eV
C       -1.29972200       1.48833600      -0.03228100
C       -0.45010500       2.63965400       0.01843500
C        0.99654200       2.45238200       0.05441800
C       -0.76903400       0.15867800      -0.04877100
C        0.67752200      -0.02870400      -0.01297900
C        1.52709100       1.12265000       0.03785500
C        2.93347700       0.94084900       0.07277000
C        3.48023700      -0.37253000       0.05696900
C        3.79427800       2.07240500       0.12351100
C        5.26507800       1.88272800       0.16006300
C        1.24802600      -1.29258500      -0.02698300
C        2.64560500      -1.46904700       0.00777700
C        1.86805800       3.52983300       0.10418700
C        3.26457400       3.34539700       0.13880400
C        4.95087500      -0.56291500       0.09346700
N        5.75909100       0.57580800       0.14293500
O        6.06925500       2.83065500       0.20492200
O        5.48910000      -1.68427500       0.08194900
C       -1.02041300       3.90352800       0.03216900
C       -2.41794600       4.08003500      -0.00262400
C       -2.70602800       1.67000700      -0.06716000
C       -3.25245200       2.98347100      -0.05156500
C       -3.56691500       0.53850500      -0.11766500
C       -3.03687800      -0.73433100      -0.13279200
C       -1.64041100      -0.91883000      -0.09829200
C       -4.72314700       3.17392200      -0.08803700
C       -5.03773600       0.72818300      -0.15412500
N       -5.53143900       2.03522700      -0.13722100
O       -5.26133100       4.29529300      -0.07673500
O       -5.84203300      -0.21964700      -0.19870900
H        0.62972700      -2.20233100      -0.06573200
H        3.07286500      -2.48716200      -0.00439800
H        1.49989900       4.56697900       0.11841200
H        3.93550500       4.22152900       0.17822500
H        6.75033500       0.44779700       0.16755800
H       -0.40199700       4.81321100       0.07071000
H       -2.84532000       5.09816700       0.00933800
H       -3.70773700      -1.61056600      -0.17200800
H       -1.27202900      -1.95588300      -0.11238600
H       -6.52266300       2.16338500      -0.16179200
C        4.59125223      10.14042028       5.03070257
C        3.45290330      10.19432857       5.89742623
C        3.27904467      11.35196894       6.76851468
C        5.56337582      11.19094515       4.99513171
C        5.38953563      12.34865703       5.86599343
C        4.25122699      12.40245865       6.73278432
C        4.08195789      13.52778543       7.57964904
C        5.03699599      14.58212359       7.55882045
C        2.95739897      13.59965301       8.44808112
C        2.78002048      14.77628498       9.33388027
C        6.29851585      13.39591678       5.87424450
C        6.12683836      14.51212764       6.71696291
C        2.19650816      11.45857533       7.62855393
C        2.03165932      12.57792802       8.46840293
C        4.86021950      15.75900255       8.44429246
N        3.74169792      15.78859989       9.28118178
O        1.81915449      14.89760988      10.11445402
O        5.65944381      16.71175372       8.47209136
C        2.54374735       9.14734081       5.88909448
C        2.71535985       8.03115742       5.04639194
C        4.76062834       9.01520028       4.18387959
C        3.80533607       7.96116533       4.20478571
C        5.88528045       8.94313557       3.31558340
C        6.81089270       9.96495914       3.29563150
C        6.64604989      11.08435856       4.13534694
C        3.98208421       6.78419991       3.31931518
C        6.06270896       7.76644587       2.42983968
N        5.10074214       6.75440390       2.48259660
O        3.18273333       5.83157159       3.29138457
O        7.02365991       7.64485990       1.64942104
H        7.18591932      13.39243281       5.22314093
H        6.86638678      15.33196312       6.70298381
H        1.42791334      10.67281257       7.68559886
H        1.15994473      12.63683415       9.14364618
H        3.62229698      16.58168138       9.87810970
H        1.65626469       9.15103685       6.54009968
H        1.97571863       7.21132449       5.06014736
H        7.68277787       9.90606441       2.62055734
H        7.41457882      11.87018395       4.07856138
H        5.22004168       5.96124251       1.88575838
