80
Dimer: struct; Energy: -4906.06228 eV
C       -1.29972200       1.48833600      -0.03228100
C       -0.45010500       2.63965400       0.01843500
C        0.99654200       2.45238200       0.05441800
C       -0.76903400       0.15867800      -0.04877100
C        0.67752200      -0.02870400      -0.01297900
C        1.52709100       1.12265000       0.03785500
C        2.93347700       0.94084900       0.07277000
C        3.48023700      -0.37253000       0.05696900
C        3.79427800       2.07240500       0.12351100
C        5.26507800       1.88272800       0.16006300
C        1.24802600      -1.29258500      -0.02698300
C        2.64560500      -1.46904700       0.00777700
C        1.86805800       3.52983300       0.10418700
C        3.26457400       3.34539700       0.13880400
C        4.95087500      -0.56291500       0.09346700
N        5.75909100       0.57580800       0.14293500
O        6.06925500       2.83065500       0.20492200
O        5.48910000      -1.68427500       0.08194900
C       -1.02041300       3.90352800       0.03216900
C       -2.41794600       4.08003500      -0.00262400
C       -2.70602800       1.67000700      -0.06716000
C       -3.25245200       2.98347100      -0.05156500
C       -3.56691500       0.53850500      -0.11766500
C       -3.03687800      -0.73433100      -0.13279200
C       -1.64041100      -0.91883000      -0.09829200
C       -4.72314700       3.17392200      -0.08803700
C       -5.03773600       0.72818300      -0.15412500
N       -5.53143900       2.03522700      -0.13722100
O       -5.26133100       4.29529300      -0.07673500
O       -5.84203300      -0.21964700      -0.19870900
H        0.62972700      -2.20233100      -0.06573200
H        3.07286500      -2.48716200      -0.00439800
H        1.49989900       4.56697900       0.11841200
H        3.93550500       4.22152900       0.17822500
H        6.75033500       0.44779700       0.16755800
H       -0.40199700       4.81321100       0.07071000
H       -2.84532000       5.09816700       0.00933800
H       -3.70773700      -1.61056600      -0.17200800
H       -1.27202900      -1.95588300      -0.11238600
H       -6.52266300       2.16338500      -0.16179200
C        8.27577001       3.47286880       6.72431836
C        8.83498696       2.15758896       6.63905610
C        9.63777344       1.65501845       7.74906055
C        8.48245185       4.30830775       7.86852833
C        9.28502324       3.80580309       8.97861192
C        9.84431514       2.49055680       8.89324583
C       10.62471662       2.00173842       9.97223719
C       10.84147568       2.81669614      11.11810804
C       11.18901403       0.69744639       9.90618629
C       12.00521302       0.18588454      11.03432180
C        9.51859320       4.56998376      10.11198700
C       10.29437060       4.08081707      11.18178115
C       10.20434798       0.38964060       7.72204306
C       10.97903312      -0.09257080       8.79573156
C       11.65750645       2.30576878      12.24655906
N       12.19267022       1.01946319      12.13993861
O       12.52480890      -0.94428990      11.03642749
O       11.88282441       2.96928965      13.27429392
C        8.60129582       1.39323017       5.50593588
C        7.82551781       1.88232746       4.43616203
C        7.49543552       3.96176887       5.64544290
C        7.27868930       3.14651536       4.49984573
C        6.93129253       5.26613807       5.71130352
C        7.14160063       6.05593145       6.82183333
C        7.91615787       5.57375369       7.89557254
C        6.46265285       3.65742411       3.37130582
C        6.11515952       5.77774061       4.58311416
N        5.92768792       4.94384009       3.47773787
O        6.23717618       2.99380067       2.34368387
O        5.59573458       6.90798627       4.58075324
H        9.10649867       5.58525139      10.21611517
H       10.46430911       4.71100912      12.07241933
H       10.06902389      -0.28267895       6.86117777
H       11.41846317      -1.10445002       8.74765487
H       12.74272832       0.67483853      12.90035146
H        9.01327575       0.37788809       5.40201325
H        7.65533964       1.25210053       3.54552305
H        6.70237653       7.06793243       6.86993406
H        8.05171716       6.24593959       8.75648640
H        5.37769164       5.28835341       2.71723285
