80
Dimer: struct; Energy: -4906.06228 eV
C       -1.29972200       1.48833600      -0.03228100
C       -0.45010500       2.63965400       0.01843500
C        0.99654200       2.45238200       0.05441800
C       -0.76903400       0.15867800      -0.04877100
C        0.67752200      -0.02870400      -0.01297900
C        1.52709100       1.12265000       0.03785500
C        2.93347700       0.94084900       0.07277000
C        3.48023700      -0.37253000       0.05696900
C        3.79427800       2.07240500       0.12351100
C        5.26507800       1.88272800       0.16006300
C        1.24802600      -1.29258500      -0.02698300
C        2.64560500      -1.46904700       0.00777700
C        1.86805800       3.52983300       0.10418700
C        3.26457400       3.34539700       0.13880400
C        4.95087500      -0.56291500       0.09346700
N        5.75909100       0.57580800       0.14293500
O        6.06925500       2.83065500       0.20492200
O        5.48910000      -1.68427500       0.08194900
C       -1.02041300       3.90352800       0.03216900
C       -2.41794600       4.08003500      -0.00262400
C       -2.70602800       1.67000700      -0.06716000
C       -3.25245200       2.98347100      -0.05156500
C       -3.56691500       0.53850500      -0.11766500
C       -3.03687800      -0.73433100      -0.13279200
C       -1.64041100      -0.91883000      -0.09829200
C       -4.72314700       3.17392200      -0.08803700
C       -5.03773600       0.72818300      -0.15412500
N       -5.53143900       2.03522700      -0.13722100
O       -5.26133100       4.29529300      -0.07673500
O       -5.84203300      -0.21964700      -0.19870900
H        0.62972700      -2.20233100      -0.06573200
H        3.07286500      -2.48716200      -0.00439800
H        1.49989900       4.56697900       0.11841200
H        3.93550500       4.22152900       0.17822500
H        6.75033500       0.44779700       0.16755800
H       -0.40199700       4.81321100       0.07071000
H       -2.84532000       5.09816700       0.00933800
H       -3.70773700      -1.61056600      -0.17200800
H       -1.27202900      -1.95588300      -0.11238600
H       -6.52266300       2.16338500      -0.16179200
C        7.85669780       9.10432601      -1.21809804
C        7.59635533       7.70045201      -1.11173123
C        7.17703155       7.15240421       0.17394536
C        7.71683360       9.98501235      -0.09795446
C        7.29736142       9.43713927       1.18765650
C        7.03714482       8.03323509       1.29399555
C        6.62941932       7.50023147       2.54373924
C        6.48455769       8.35910661       3.66868776
C        6.36620653       6.10779736       2.66950991
C        5.93982760       5.54998972       3.97626838
C        7.14500555      10.24192587       2.30666156
C        6.73975338       9.70866330       3.54640986
C        6.91129919       5.80113513       0.33635206
C        6.50651548       5.27521959       1.57934639
C        6.05820269       7.80199203       4.97566879
N        5.81025327       6.42916551       5.05452741
O        5.69516345       4.34281975       4.14993092
O        5.91370143       8.50032208       5.99484571
C        7.74839331       6.89562841      -2.23064174
C        8.15359809       7.42883665      -3.47038439
C        8.26443633       9.63739487      -2.46769972
C        8.40899316       8.77832406      -3.59247113
C        8.52789827      11.02977914      -2.59350840
C        8.38763561      11.86203048      -1.50311231
C        7.98275870      11.33621497      -0.26015497
C        8.83538870       9.33540494      -4.89952634
C        8.95437103      11.58757838      -3.90026105
N        9.08363046      10.70818971      -4.97838905
O        8.97967189       8.63708722      -5.91873063
O        9.19933065      12.79467078      -4.07400175
H        7.33512208      11.32527739       2.26618798
H        6.62644210      10.37278208       4.42126088
H        7.00713836       5.09174647      -0.49970884
H        6.30143403       4.19492147       1.68037745
H        5.52289103       6.05338607       5.93530577
H        7.55804460       5.81231400      -2.19009306
H        8.26674319       6.76479960      -4.34539146
H        8.59289188      12.94234214      -1.60397883
H        7.88696970      12.04539100       0.57607268
H        9.37103071      11.08382401      -5.85921434
