80
Dimer: struct; Energy: -4906.06228 eV
C       -1.29972200       1.48833600      -0.03228100
C       -0.45010500       2.63965400       0.01843500
C        0.99654200       2.45238200       0.05441800
C       -0.76903400       0.15867800      -0.04877100
C        0.67752200      -0.02870400      -0.01297900
C        1.52709100       1.12265000       0.03785500
C        2.93347700       0.94084900       0.07277000
C        3.48023700      -0.37253000       0.05696900
C        3.79427800       2.07240500       0.12351100
C        5.26507800       1.88272800       0.16006300
C        1.24802600      -1.29258500      -0.02698300
C        2.64560500      -1.46904700       0.00777700
C        1.86805800       3.52983300       0.10418700
C        3.26457400       3.34539700       0.13880400
C        4.95087500      -0.56291500       0.09346700
N        5.75909100       0.57580800       0.14293500
O        6.06925500       2.83065500       0.20492200
O        5.48910000      -1.68427500       0.08194900
C       -1.02041300       3.90352800       0.03216900
C       -2.41794600       4.08003500      -0.00262400
C       -2.70602800       1.67000700      -0.06716000
C       -3.25245200       2.98347100      -0.05156500
C       -3.56691500       0.53850500      -0.11766500
C       -3.03687800      -0.73433100      -0.13279200
C       -1.64041100      -0.91883000      -0.09829200
C       -4.72314700       3.17392200      -0.08803700
C       -5.03773600       0.72818300      -0.15412500
N       -5.53143900       2.03522700      -0.13722100
O       -5.26133100       4.29529300      -0.07673500
O       -5.84203300      -0.21964700      -0.19870900
H        0.62972700      -2.20233100      -0.06573200
H        3.07286500      -2.48716200      -0.00439800
H        1.49989900       4.56697900       0.11841200
H        3.93550500       4.22152900       0.17822500
H        6.75033500       0.44779700       0.16755800
H       -0.40199700       4.81321100       0.07071000
H       -2.84532000       5.09816700       0.00933800
H       -3.70773700      -1.61056600      -0.17200800
H       -1.27202900      -1.95588300      -0.11238600
H       -6.52266300       2.16338500      -0.16179200
C       10.55505270       3.84615015       0.40583948
C       11.27827972       4.97360905      -0.09986142
C       11.33140769       6.19639110       0.69457838
C        9.88279932       3.88546760       1.66933527
C        9.93600822       5.10806602       2.46390387
C       10.65915350       6.23553685       1.95809953
C       10.71100411       7.42434602       2.73026306
C       10.04952902       7.48315531       3.98849704
C       11.42445026       8.55537866       2.24474092
C       11.47890077       9.79879269       3.05191051
C        9.30427071       5.20399593       3.69466432
C        9.35812963       6.38671114       4.45877040
C       12.01632487       7.31937187       0.25557905
C       12.06563435       8.49858284       1.02532055
C       10.10360035       8.72618396       4.79615461
N       10.81529113       9.81289532       4.28146549
O       12.08549174      10.81999561       2.68249128
O        9.54654428       8.83974079       5.90252726
C       11.91025828       4.87775125      -1.33040264
C       11.85645773       3.69507868      -2.09450659
C       10.50310946       2.65738309      -0.36620471
C       11.16484408       2.59882092      -1.62425393
C        9.78949093       1.52637739       0.11912885
C        9.14830391       1.58357462       1.33850870
C        9.19766633       2.76268041       2.10832889
C       11.11078165       1.35577253      -2.43199988
C        9.73496346       0.28297852      -0.68809322
N       10.39886601       0.26910601      -1.91749689
O       11.66802488       1.24217706      -3.53826329
O        9.12818838      -0.73819960      -0.31892880
H        8.73863475       4.36011573       4.11816767
H        8.84574835       6.43532462       5.43568373
H       12.54555307       7.32935585      -0.70942512
H       12.61850573       9.37824994       0.65138376
H       10.85189580      10.65083238       4.82559724
H       12.47604280       5.72163898      -1.75370902
H       12.36900692       3.64629358      -3.07138823
H        8.59521681       0.70401224       1.71246342
H        8.66841353       2.75296878       3.07330558
H       10.36230514      -0.56874824      -2.46175489
