80
Dimer: struct; Energy: -4906.06228 eV
C       -1.29972200       1.48833600      -0.03228100
C       -0.45010500       2.63965400       0.01843500
C        0.99654200       2.45238200       0.05441800
C       -0.76903400       0.15867800      -0.04877100
C        0.67752200      -0.02870400      -0.01297900
C        1.52709100       1.12265000       0.03785500
C        2.93347700       0.94084900       0.07277000
C        3.48023700      -0.37253000       0.05696900
C        3.79427800       2.07240500       0.12351100
C        5.26507800       1.88272800       0.16006300
C        1.24802600      -1.29258500      -0.02698300
C        2.64560500      -1.46904700       0.00777700
C        1.86805800       3.52983300       0.10418700
C        3.26457400       3.34539700       0.13880400
C        4.95087500      -0.56291500       0.09346700
N        5.75909100       0.57580800       0.14293500
O        6.06925500       2.83065500       0.20492200
O        5.48910000      -1.68427500       0.08194900
C       -1.02041300       3.90352800       0.03216900
C       -2.41794600       4.08003500      -0.00262400
C       -2.70602800       1.67000700      -0.06716000
C       -3.25245200       2.98347100      -0.05156500
C       -3.56691500       0.53850500      -0.11766500
C       -3.03687800      -0.73433100      -0.13279200
C       -1.64041100      -0.91883000      -0.09829200
C       -4.72314700       3.17392200      -0.08803700
C       -5.03773600       0.72818300      -0.15412500
N       -5.53143900       2.03522700      -0.13722100
O       -5.26133100       4.29529300      -0.07673500
O       -5.84203300      -0.21964700      -0.19870900
H        0.62972700      -2.20233100      -0.06573200
H        3.07286500      -2.48716200      -0.00439800
H        1.49989900       4.56697900       0.11841200
H        3.93550500       4.22152900       0.17822500
H        6.75033500       0.44779700       0.16755800
H       -0.40199700       4.81321100       0.07071000
H       -2.84532000       5.09816700       0.00933800
H       -3.70773700      -1.61056600      -0.17200800
H       -1.27202900      -1.95588300      -0.11238600
H       -6.52266300       2.16338500      -0.16179200
C        7.34735426      -0.98676469       5.92452144
C        7.09775605      -0.41523880       4.63571844
C        6.96138193       1.03262795       4.51639911
C        7.46689994      -0.17689111       7.09913018
C        7.33073484       1.27092225       6.97991248
C        7.08101980       1.84238665       5.69109967
C        6.94847817       3.24990539       5.57484149
C        7.06418143       4.07181438       6.73036688
C        6.70011224       3.83666278       4.30283437
C        6.56141248       5.30854620       4.18081943
C        7.43716107       2.10497598       8.08267897
C        7.30491946       3.50275413       7.96308566
C        6.71909266       1.64176265       3.29444634
C        6.58796840       3.04026568       3.18278783
C        6.92562746       5.54369870       6.60906550
N        6.68214405       6.07774570       5.34105135
O        6.34404207       5.88084252       3.09799645
O        7.01646115       6.31486345       7.58082742
C        6.99158149      -1.24908446       3.53288314
C        7.12384690      -2.64682578       3.65241894
C        7.47986797      -2.39417904       6.04089329
C        7.36433102      -3.21576755       4.88518848
C        7.72800143      -2.98104574       7.31289613
C        7.83993557      -2.18436823       8.43274221
C        7.70893829      -0.78589230       8.32114028
C        7.50285670      -4.68772339       5.00644122
C        7.86661175      -4.45295515       7.43492619
N        7.74606216      -5.22186702       6.27448026
O        7.41223223      -5.45883811       4.03463261
O        8.08370913      -5.02540559       8.51771534
H        7.62861764       1.70495411       9.09003185
H        7.39425092       4.14321251       8.85812222
H        6.62064946       1.05455983       2.36874822
H        6.39516044       3.49888862       2.19698877
H        6.58869840       7.06975971       5.25899101
H        6.80032806      -0.84892275       2.52554027
H        7.03473406      -3.28738657       2.75736298
H        8.03254593      -2.64291032       9.41865188
H        7.80722269      -0.19850034       9.24671779
H        7.83943829      -6.21389686       6.35640050
