80
Dimer: struct; Energy: -4906.06228 eV
C       -1.29972200       1.48833600      -0.03228100
C       -0.45010500       2.63965400       0.01843500
C        0.99654200       2.45238200       0.05441800
C       -0.76903400       0.15867800      -0.04877100
C        0.67752200      -0.02870400      -0.01297900
C        1.52709100       1.12265000       0.03785500
C        2.93347700       0.94084900       0.07277000
C        3.48023700      -0.37253000       0.05696900
C        3.79427800       2.07240500       0.12351100
C        5.26507800       1.88272800       0.16006300
C        1.24802600      -1.29258500      -0.02698300
C        2.64560500      -1.46904700       0.00777700
C        1.86805800       3.52983300       0.10418700
C        3.26457400       3.34539700       0.13880400
C        4.95087500      -0.56291500       0.09346700
N        5.75909100       0.57580800       0.14293500
O        6.06925500       2.83065500       0.20492200
O        5.48910000      -1.68427500       0.08194900
C       -1.02041300       3.90352800       0.03216900
C       -2.41794600       4.08003500      -0.00262400
C       -2.70602800       1.67000700      -0.06716000
C       -3.25245200       2.98347100      -0.05156500
C       -3.56691500       0.53850500      -0.11766500
C       -3.03687800      -0.73433100      -0.13279200
C       -1.64041100      -0.91883000      -0.09829200
C       -4.72314700       3.17392200      -0.08803700
C       -5.03773600       0.72818300      -0.15412500
N       -5.53143900       2.03522700      -0.13722100
O       -5.26133100       4.29529300      -0.07673500
O       -5.84203300      -0.21964700      -0.19870900
H        0.62972700      -2.20233100      -0.06573200
H        3.07286500      -2.48716200      -0.00439800
H        1.49989900       4.56697900       0.11841200
H        3.93550500       4.22152900       0.17822500
H        6.75033500       0.44779700       0.16755800
H       -0.40199700       4.81321100       0.07071000
H       -2.84532000       5.09816700       0.00933800
H       -3.70773700      -1.61056600      -0.17200800
H       -1.27202900      -1.95588300      -0.11238600
H       -6.52266300       2.16338500      -0.16179200
C        5.04178903       1.64875681       7.21395745
C        6.25033427       1.40422912       7.94167917
C        6.16985166       0.80067324       9.26772441
C        3.75679873       1.31733374       7.75140580
C        3.67620691       0.71363793       9.07729180
C        4.88478002       0.46923949       9.80501980
C        4.80679800      -0.11756188      11.09411839
C        3.53919850      -0.45421728      11.64549415
C        5.99647992      -0.36819329      11.83290985
C        5.91537394      -0.98180697      13.18104416
C        2.45963032       0.37163472       9.64829208
C        2.38632020      -0.21115727      10.92913293
C        7.30644909       0.54097443      10.01847107
C        7.22511904      -0.04201479      11.29869796
C        3.45737697      -1.06785650      12.99349520
N        4.65034158      -1.29649368      13.68408244
O        6.91807797      -1.22545444      13.87566572
O        2.38033475      -1.38429427      13.52932564
C        7.46692859       1.74590441       7.37073820
C        7.54028821       2.32864984       6.08992210
C        5.11964610       2.23554752       5.92495302
C        6.38736300       2.57187832       5.37378562
C        3.93000273       2.48643194       5.18618402
C        2.70153758       2.16026960       5.72075958
C        2.62014550       1.57719204       7.00089477
C        6.46924510       3.18556986       4.02574126
C        4.01110470       3.10013753       3.83807074
N        5.27629208       3.41449723       3.33520764
O        7.54630944       3.50179630       3.48985328
O        3.00847808       3.34409061       3.14345584
H        1.50855659       0.54318145       9.12154413
H        1.40394413      -0.47353548      11.35965869
H        8.31210449       0.78097956       9.64101910
H        8.14658097      -0.23786388      11.87477152
H        4.59550293      -1.71005977      14.59266022
H        8.41795604       1.57411591       7.89750419
H        8.52268075       2.59088664       5.65920042
H        1.77997066       2.35626533       5.14484505
H        1.61459443       1.33721483       7.37859948
H        5.33127675       3.82811120       2.42666299
