80
Dimer: struct; Energy: -4906.06228 eV
C       -1.29972200       1.48833600      -0.03228100
C       -0.45010500       2.63965400       0.01843500
C        0.99654200       2.45238200       0.05441800
C       -0.76903400       0.15867800      -0.04877100
C        0.67752200      -0.02870400      -0.01297900
C        1.52709100       1.12265000       0.03785500
C        2.93347700       0.94084900       0.07277000
C        3.48023700      -0.37253000       0.05696900
C        3.79427800       2.07240500       0.12351100
C        5.26507800       1.88272800       0.16006300
C        1.24802600      -1.29258500      -0.02698300
C        2.64560500      -1.46904700       0.00777700
C        1.86805800       3.52983300       0.10418700
C        3.26457400       3.34539700       0.13880400
C        4.95087500      -0.56291500       0.09346700
N        5.75909100       0.57580800       0.14293500
O        6.06925500       2.83065500       0.20492200
O        5.48910000      -1.68427500       0.08194900
C       -1.02041300       3.90352800       0.03216900
C       -2.41794600       4.08003500      -0.00262400
C       -2.70602800       1.67000700      -0.06716000
C       -3.25245200       2.98347100      -0.05156500
C       -3.56691500       0.53850500      -0.11766500
C       -3.03687800      -0.73433100      -0.13279200
C       -1.64041100      -0.91883000      -0.09829200
C       -4.72314700       3.17392200      -0.08803700
C       -5.03773600       0.72818300      -0.15412500
N       -5.53143900       2.03522700      -0.13722100
O       -5.26133100       4.29529300      -0.07673500
O       -5.84203300      -0.21964700      -0.19870900
H        0.62972700      -2.20233100      -0.06573200
H        3.07286500      -2.48716200      -0.00439800
H        1.49989900       4.56697900       0.11841200
H        3.93550500       4.22152900       0.17822500
H        6.75033500       0.44779700       0.16755800
H       -0.40199700       4.81321100       0.07071000
H       -2.84532000       5.09816700       0.00933800
H       -3.70773700      -1.61056600      -0.17200800
H       -1.27202900      -1.95588300      -0.11238600
H       -6.52266300       2.16338500      -0.16179200
C        8.44888739       4.60103668       4.29087888
C        8.92765393       4.18888942       5.57574134
C        8.19151072       3.16685174       6.31241310
C        7.26804781       4.03798744       3.70908380
C        6.53196465       3.01586670       4.44554026
C        7.01071230       2.60384016       5.73045365
C        6.29528329       1.61023451       6.44676462
C        5.11960470       1.03847029       5.88549276
C        6.75503292       1.18757731       7.72503030
C        6.00714711       0.14854963       8.47446632
C        5.38219349       2.43514908       3.93186777
C        4.67429796       1.44836772       4.64651497
C        8.60772816       2.72876136       7.56051470
C        7.89447379       1.74157254       8.26917425
C        4.37129275      -0.00057450       6.63433841
N        4.85804621      -0.38600898       7.88608183
O        6.35776805      -0.26257724       9.59487617
O        3.33785481      -0.53782594       6.19772188
C       10.07748928       4.76927996       6.08939766
C       10.78541755       5.75601185       5.37479184
C        9.16416912       5.59459355       3.57454499
C       10.33988849       6.16598847       4.13597340
C        8.70436445       6.01748272       2.29637505
C        7.56481421       5.46338830       1.75260658
C        6.85159715       4.47614442       2.46114109
C       11.08825755       7.20510038       3.38715047
C        9.45220905       7.05658932       1.54697035
N       10.60139966       7.59078967       2.13551375
O       12.12180537       7.74217417       3.82369752
O        9.10155695       7.46800500       0.42668317
H        4.98193333       2.72425633       2.94817995
H        3.76151859       1.00277905       4.21345371
H        9.50973200       3.13654307       8.04167827
H        8.24859671       1.41127877       9.26155154
H        4.35388438      -1.08629199       8.39103958
H       10.47777013       4.47993710       7.07301490
H       11.69837159       6.20153528       5.80769853
H        7.21047458       5.79376000       0.76029844
H        5.94950078       4.06830854       1.98023059
H       11.10563312       8.29111421       1.63068963
