80
Dimer: struct; Energy: -4906.06228 eV
C       -1.29972200       1.48833600      -0.03228100
C       -0.45010500       2.63965400       0.01843500
C        0.99654200       2.45238200       0.05441800
C       -0.76903400       0.15867800      -0.04877100
C        0.67752200      -0.02870400      -0.01297900
C        1.52709100       1.12265000       0.03785500
C        2.93347700       0.94084900       0.07277000
C        3.48023700      -0.37253000       0.05696900
C        3.79427800       2.07240500       0.12351100
C        5.26507800       1.88272800       0.16006300
C        1.24802600      -1.29258500      -0.02698300
C        2.64560500      -1.46904700       0.00777700
C        1.86805800       3.52983300       0.10418700
C        3.26457400       3.34539700       0.13880400
C        4.95087500      -0.56291500       0.09346700
N        5.75909100       0.57580800       0.14293500
O        6.06925500       2.83065500       0.20492200
O        5.48910000      -1.68427500       0.08194900
C       -1.02041300       3.90352800       0.03216900
C       -2.41794600       4.08003500      -0.00262400
C       -2.70602800       1.67000700      -0.06716000
C       -3.25245200       2.98347100      -0.05156500
C       -3.56691500       0.53850500      -0.11766500
C       -3.03687800      -0.73433100      -0.13279200
C       -1.64041100      -0.91883000      -0.09829200
C       -4.72314700       3.17392200      -0.08803700
C       -5.03773600       0.72818300      -0.15412500
N       -5.53143900       2.03522700      -0.13722100
O       -5.26133100       4.29529300      -0.07673500
O       -5.84203300      -0.21964700      -0.19870900
H        0.62972700      -2.20233100      -0.06573200
H        3.07286500      -2.48716200      -0.00439800
H        1.49989900       4.56697900       0.11841200
H        3.93550500       4.22152900       0.17822500
H        6.75033500       0.44779700       0.16755800
H       -0.40199700       4.81321100       0.07071000
H       -2.84532000       5.09816700       0.00933800
H       -3.70773700      -1.61056600      -0.17200800
H       -1.27202900      -1.95588300      -0.11238600
H       -6.52266300       2.16338500      -0.16179200
C        8.06231981       5.48633624       6.98555611
C        7.56010757       5.60776315       8.32084359
C        8.50129132       5.81609351       9.41625435
C        9.46225770       5.56379877       6.69561552
C       10.40347017       5.77229920       7.79086161
C        9.90121067       5.89360246       9.12614755
C       10.81597857       6.09620624      10.19120324
C       12.21100607       6.17610906       9.92348253
C       10.33637406       6.21908348      11.52493960
C       11.29266442       6.43093953      12.63902749
C       11.76997177       5.85560902       7.56995676
C       12.67549527       6.05697534       8.63064189
C        8.07275175       5.94055452      10.72918277
C        8.98437385       6.14170112      11.78462444
C       13.16779829       6.38797469      11.03704271
N       12.65368325       6.50325282      12.33116285
O       10.93594161       6.54579735      13.82512828
O       14.39759120       6.46649104      10.86759761
C        6.19369747       5.52475270       8.54186406
C        5.28815864       5.32342778       7.48123621
C        7.14770679       5.28370780       5.92050109
C        5.75277411       5.20406737       6.18851286
C        7.62723727       5.16058458       4.58676006
C        8.97929908       5.23786401       4.32746044
C        9.89093873       5.43911604       5.38280918
C        4.79589774       4.99216784       5.07494573
C        6.67094163       4.94863434       3.47266974
N        5.30996955       4.87659759       3.78082247
O        3.56610156       4.91387152       5.24439696
O        7.02753893       4.83348726       2.28656577
H       12.19556704       5.76744734       6.55875494
H       13.75875545       6.11942832       8.42593603
H        7.00562207       5.88663819      10.99327080
H        8.61543656       6.23747037      12.82097536
H       13.29832274       6.64603998      13.08190217
H        5.76820262       5.61313789       9.55309554
H        4.20480665       5.26116543       7.68582424
H        9.34837696       5.14190288       3.29114463
H       10.95812076       5.49294364       5.11897596
H        4.66522154       4.73376592       3.03018784
