80
Dimer: struct; Energy: -4906.06228 eV
C       -1.29972200       1.48833600      -0.03228100
C       -0.45010500       2.63965400       0.01843500
C        0.99654200       2.45238200       0.05441800
C       -0.76903400       0.15867800      -0.04877100
C        0.67752200      -0.02870400      -0.01297900
C        1.52709100       1.12265000       0.03785500
C        2.93347700       0.94084900       0.07277000
C        3.48023700      -0.37253000       0.05696900
C        3.79427800       2.07240500       0.12351100
C        5.26507800       1.88272800       0.16006300
C        1.24802600      -1.29258500      -0.02698300
C        2.64560500      -1.46904700       0.00777700
C        1.86805800       3.52983300       0.10418700
C        3.26457400       3.34539700       0.13880400
C        4.95087500      -0.56291500       0.09346700
N        5.75909100       0.57580800       0.14293500
O        6.06925500       2.83065500       0.20492200
O        5.48910000      -1.68427500       0.08194900
C       -1.02041300       3.90352800       0.03216900
C       -2.41794600       4.08003500      -0.00262400
C       -2.70602800       1.67000700      -0.06716000
C       -3.25245200       2.98347100      -0.05156500
C       -3.56691500       0.53850500      -0.11766500
C       -3.03687800      -0.73433100      -0.13279200
C       -1.64041100      -0.91883000      -0.09829200
C       -4.72314700       3.17392200      -0.08803700
C       -5.03773600       0.72818300      -0.15412500
N       -5.53143900       2.03522700      -0.13722100
O       -5.26133100       4.29529300      -0.07673500
O       -5.84203300      -0.21964700      -0.19870900
H        0.62972700      -2.20233100      -0.06573200
H        3.07286500      -2.48716200      -0.00439800
H        1.49989900       4.56697900       0.11841200
H        3.93550500       4.22152900       0.17822500
H        6.75033500       0.44779700       0.16755800
H       -0.40199700       4.81321100       0.07071000
H       -2.84532000       5.09816700       0.00933800
H       -3.70773700      -1.61056600      -0.17200800
H       -1.27202900      -1.95588300      -0.11238600
H       -6.52266300       2.16338500      -0.16179200
C       13.74001905       2.04142383       5.60934454
C       13.54810242       2.63529205       4.32076283
C       12.20306210       2.68819165       3.75753881
C       12.64872556       1.49828342       6.36032329
C       11.30368745       1.55128825       5.79731324
C       11.11184529       2.14506417       4.50867273
C        9.80435142       2.19667083       3.96096042
C        8.70680090       1.66243416       4.69180555
C        9.59337632       2.78262156       2.68185009
C        8.22621512       2.83676905       2.10869710
C       10.20898312       1.04140096       6.47900488
C        8.91166396       1.09458932       5.93154880
C       11.95712895       3.25101298       2.51429032
C       10.65696192       3.30047844       1.97337372
C        7.33944033       1.71627926       4.11928441
N        7.17753096       2.30044438       2.86036157
O        7.97734746       3.33543759       0.99663903
O        6.34034655       1.26690206       4.70846929
C       14.64259670       3.14543598       3.63910840
C       15.93989256       3.09230301       4.18652424
C       15.04738669       1.98973444       6.15709951
C       16.14465690       2.52423123       5.42612664
C       15.25849354       1.40359188       7.43610098
C       14.19471304       0.88570189       8.14422564
C       12.89454354       0.93523466       7.60343363
C       17.51210172       2.47038738       5.99861340
C       16.62568573       1.34936174       8.00922060
N       17.67412823       1.88597741       7.25741986
O       18.51113626       2.91996388       5.40950083
O       16.87474021       0.85048321       9.12113569
H       10.31454335       0.57727934       7.47141663
H        8.05788508       0.68079717       6.49643389
H       12.76860251       3.67891200       1.90615521
H       10.48975811       3.75457354       0.98082637
H        6.25604870       2.33686355       2.47422447
H       14.53687717       3.60972438       2.64678457
H       16.79375062       3.50627621       3.62177916
H       14.36183273       0.43138761       9.13672099
H       12.08293669       0.50729074       8.21133262
H       18.59566919       1.84958366       7.64341336
