80
Dimer: struct; Energy: -4906.06228 eV
C       -1.29972200       1.48833600      -0.03228100
C       -0.45010500       2.63965400       0.01843500
C        0.99654200       2.45238200       0.05441800
C       -0.76903400       0.15867800      -0.04877100
C        0.67752200      -0.02870400      -0.01297900
C        1.52709100       1.12265000       0.03785500
C        2.93347700       0.94084900       0.07277000
C        3.48023700      -0.37253000       0.05696900
C        3.79427800       2.07240500       0.12351100
C        5.26507800       1.88272800       0.16006300
C        1.24802600      -1.29258500      -0.02698300
C        2.64560500      -1.46904700       0.00777700
C        1.86805800       3.52983300       0.10418700
C        3.26457400       3.34539700       0.13880400
C        4.95087500      -0.56291500       0.09346700
N        5.75909100       0.57580800       0.14293500
O        6.06925500       2.83065500       0.20492200
O        5.48910000      -1.68427500       0.08194900
C       -1.02041300       3.90352800       0.03216900
C       -2.41794600       4.08003500      -0.00262400
C       -2.70602800       1.67000700      -0.06716000
C       -3.25245200       2.98347100      -0.05156500
C       -3.56691500       0.53850500      -0.11766500
C       -3.03687800      -0.73433100      -0.13279200
C       -1.64041100      -0.91883000      -0.09829200
C       -4.72314700       3.17392200      -0.08803700
C       -5.03773600       0.72818300      -0.15412500
N       -5.53143900       2.03522700      -0.13722100
O       -5.26133100       4.29529300      -0.07673500
O       -5.84203300      -0.21964700      -0.19870900
H        0.62972700      -2.20233100      -0.06573200
H        3.07286500      -2.48716200      -0.00439800
H        1.49989900       4.56697900       0.11841200
H        3.93550500       4.22152900       0.17822500
H        6.75033500       0.44779700       0.16755800
H       -0.40199700       4.81321100       0.07071000
H       -2.84532000       5.09816700       0.00933800
H       -3.70773700      -1.61056600      -0.17200800
H       -1.27202900      -1.95588300      -0.11238600
H       -6.52266300       2.16338500      -0.16179200
C       -0.36979690       6.99102331       4.58170405
C       -0.93918570       8.30074021       4.47976134
C       -0.51753165       9.17442660       3.38979204
C        0.60160340       6.51509782       3.64374432
C        1.02317538       7.38857852       2.55368659
C        0.45383899       8.69833231       2.45185971
C        0.86353778       9.54783831       1.39229438
C        1.82762768       9.09315852       0.44997940
C        0.30939961      10.85281302       1.27421013
C        0.73759084      11.74152279       0.16632328
C        1.96011262       6.98143076       1.61589907
C        2.36449964       7.82825611       0.56474156
C       -1.03439944      10.45257669       3.24113877
C       -0.62501456      11.29366627       2.18736259
C        2.25622013       9.98129701      -0.65811502
N        1.68654116      11.25475132      -0.73641085
O        0.29064871      12.89169826       0.00942297
O        3.09416771       9.64204503      -1.51252651
C       -1.87627681       8.70790863       5.41725345
C       -2.28070898       7.86112921       6.46837808
C       -0.77936824       6.14150467       5.64117886
C       -1.74360065       6.59638222       6.58317268
C       -0.22511141       4.83659927       5.75948019
C        0.70938153       4.39613365       4.84624828
C        1.11871449       5.23710452       3.79241492
C       -2.17222884       5.70825668       7.69134977
C       -0.65324071       3.94791249       6.86743443
N       -1.60237735       4.43488129       7.76987192
O       -3.01033227       6.04745738       8.54561449
O       -0.20618667       2.79782563       7.02461592
H        2.42093290       5.98283585       1.65932479
H        3.11254414       7.47812945      -0.16812830
H       -1.78253443      10.85522992       3.94083844
H       -1.05313987      12.30711784       2.09284089
H        1.97523067      11.85358082      -1.48315002
H       -2.33718370       9.70646067       5.37360062
H       -3.02894020       8.21110496       7.20121600
H        1.13773705       3.38274798       4.94079182
H        1.86692420       4.83471162       3.09266850
H       -1.89112321       3.83617741       8.51668697
