80
Dimer: struct; Energy: -4906.06228 eV
C       -1.29972200       1.48833600      -0.03228100
C       -0.45010500       2.63965400       0.01843500
C        0.99654200       2.45238200       0.05441800
C       -0.76903400       0.15867800      -0.04877100
C        0.67752200      -0.02870400      -0.01297900
C        1.52709100       1.12265000       0.03785500
C        2.93347700       0.94084900       0.07277000
C        3.48023700      -0.37253000       0.05696900
C        3.79427800       2.07240500       0.12351100
C        5.26507800       1.88272800       0.16006300
C        1.24802600      -1.29258500      -0.02698300
C        2.64560500      -1.46904700       0.00777700
C        1.86805800       3.52983300       0.10418700
C        3.26457400       3.34539700       0.13880400
C        4.95087500      -0.56291500       0.09346700
N        5.75909100       0.57580800       0.14293500
O        6.06925500       2.83065500       0.20492200
O        5.48910000      -1.68427500       0.08194900
C       -1.02041300       3.90352800       0.03216900
C       -2.41794600       4.08003500      -0.00262400
C       -2.70602800       1.67000700      -0.06716000
C       -3.25245200       2.98347100      -0.05156500
C       -3.56691500       0.53850500      -0.11766500
C       -3.03687800      -0.73433100      -0.13279200
C       -1.64041100      -0.91883000      -0.09829200
C       -4.72314700       3.17392200      -0.08803700
C       -5.03773600       0.72818300      -0.15412500
N       -5.53143900       2.03522700      -0.13722100
O       -5.26133100       4.29529300      -0.07673500
O       -5.84203300      -0.21964700      -0.19870900
H        0.62972700      -2.20233100      -0.06573200
H        3.07286500      -2.48716200      -0.00439800
H        1.49989900       4.56697900       0.11841200
H        3.93550500       4.22152900       0.17822500
H        6.75033500       0.44779700       0.16755800
H       -0.40199700       4.81321100       0.07071000
H       -2.84532000       5.09816700       0.00933800
H       -3.70773700      -1.61056600      -0.17200800
H       -1.27202900      -1.95588300      -0.11238600
H       -6.52266300       2.16338500      -0.16179200
C        4.14383116       2.74105071       6.44590850
C        4.68444758       3.60415961       5.43956302
C        5.77686819       3.11988005       4.60216009
C        4.64543206       1.41614134       6.65304071
C        5.73766707       0.93171283       5.81562263
C        6.27832558       1.79490864       4.80936769
C        7.34027327       1.32431578       3.99511853
C        7.85244485       0.01067737       4.18536833
C        7.89092131       2.16708366       2.98988173
C        9.00148986       1.67535724       2.13817247
C        6.26354235      -0.34205448       5.97066500
C        7.31847997      -0.80589167       5.15977916
C        6.33982604       3.91109775       3.61222537
C        7.39466045       3.44026372       2.80531051
C        8.96292703      -0.48167017       3.33402944
N        9.47385532       0.37903816       2.35910189
O        9.52466810       2.36334895       1.24361642
O        9.45338337      -1.61875229       3.45134904
C        4.15853130       4.87777638       5.28422565
C        3.10360027       5.34163148       6.09504174
C        3.08197854       3.21152153       7.26018344
C        2.56990233       4.52508411       7.06954930
C        2.53142367       2.36890898       8.26560245
C        3.02802431       1.09585510       8.44999644
C        4.08274950       0.62493224       7.64306606
C        1.45939016       5.01751368       7.92091374
C        1.42090245       2.86067504       9.11738308
N        0.94859749       4.15695271       8.89605833
O        0.96881537       6.15451665       7.80342631
O        0.89781514       2.17289954      10.01214989
H        5.87576379      -1.03563217       6.73224933
H        7.71804022      -1.82495752       5.30508539
H        5.98272828       4.93463695       3.42179447
H        7.82432301       4.09183608       2.02418743
H       10.22233125       0.04747480       1.78516175
H        4.54625913       5.57119392       4.52246049
H        2.70381055       6.36065992       5.94966768
H        2.59856354       0.44424924       9.23124590
H        4.44008942      -0.39852548       7.83339566
H        0.20015737       4.48866318       9.46995621
