80
Dimer: struct; Energy: -4906.06228 eV
C       -1.29972200       1.48833600      -0.03228100
C       -0.45010500       2.63965400       0.01843500
C        0.99654200       2.45238200       0.05441800
C       -0.76903400       0.15867800      -0.04877100
C        0.67752200      -0.02870400      -0.01297900
C        1.52709100       1.12265000       0.03785500
C        2.93347700       0.94084900       0.07277000
C        3.48023700      -0.37253000       0.05696900
C        3.79427800       2.07240500       0.12351100
C        5.26507800       1.88272800       0.16006300
C        1.24802600      -1.29258500      -0.02698300
C        2.64560500      -1.46904700       0.00777700
C        1.86805800       3.52983300       0.10418700
C        3.26457400       3.34539700       0.13880400
C        4.95087500      -0.56291500       0.09346700
N        5.75909100       0.57580800       0.14293500
O        6.06925500       2.83065500       0.20492200
O        5.48910000      -1.68427500       0.08194900
C       -1.02041300       3.90352800       0.03216900
C       -2.41794600       4.08003500      -0.00262400
C       -2.70602800       1.67000700      -0.06716000
C       -3.25245200       2.98347100      -0.05156500
C       -3.56691500       0.53850500      -0.11766500
C       -3.03687800      -0.73433100      -0.13279200
C       -1.64041100      -0.91883000      -0.09829200
C       -4.72314700       3.17392200      -0.08803700
C       -5.03773600       0.72818300      -0.15412500
N       -5.53143900       2.03522700      -0.13722100
O       -5.26133100       4.29529300      -0.07673500
O       -5.84203300      -0.21964700      -0.19870900
H        0.62972700      -2.20233100      -0.06573200
H        3.07286500      -2.48716200      -0.00439800
H        1.49989900       4.56697900       0.11841200
H        3.93550500       4.22152900       0.17822500
H        6.75033500       0.44779700       0.16755800
H       -0.40199700       4.81321100       0.07071000
H       -2.84532000       5.09816700       0.00933800
H       -3.70773700      -1.61056600      -0.17200800
H       -1.27202900      -1.95588300      -0.11238600
H       -6.52266300       2.16338500      -0.16179200
C       14.32470963       8.15486463       1.97305929
C       14.27205099       7.51074960       3.25067316
C       13.22509866       6.52702359       3.50626476
C       13.37865118       7.86026745       0.93958071
C       12.33182305       6.87647880       1.19497863
C       12.27914063       6.23247831       2.47265447
C       11.26148508       5.27606514       2.72133757
C       10.31206448       4.96947324       1.70705827
C       11.19246219       4.62543289       3.98462120
C       10.12838128       3.62521046       4.24510722
C       11.38866831       6.55095572       0.23187948
C       10.37927897       5.60028614       0.48274734
C       13.12482380       5.87187775       4.72431511
C       12.11254342       4.92240978       4.96777128
C        9.24779580       3.96937619       1.96685188
N        9.21697345       3.35450171       3.22117625
O       10.01521577       3.02313508       5.32768626
O        8.38964014       3.65855423       1.12173317
C       15.21523888       7.83594452       4.21372155
C       16.22463905       8.78655524       3.96289429
C       15.34223164       9.11125562       1.72429698
C       16.29159805       9.41745917       2.73867012
C       15.41119220       9.76211112       0.46112418
C       14.49086600       9.46500511      -0.52173248
C       13.47865934       8.51549370      -0.27838917
C       17.35591834      10.41761025       2.47892847
C       16.47523146      10.76241312       0.20066714
N       17.38663083      11.03273651       1.22471249
O       18.21418332      10.72825033       3.32398861
O       16.58835285      11.36476027      -0.88175818
H       11.39504050       7.02337674      -0.76220839
H        9.64103638       5.36025681      -0.30251776
H       13.83221543       6.07028183       5.54385652
H       12.05613990       4.41560305       5.94719728
H        8.49976204       2.68040740       3.39656845
H       15.20888779       7.36329869       5.20770972
H       16.96309251       9.02651392       4.74806351
H       14.54705119       9.97191249      -1.50115354
H       12.77108636       8.31701792      -1.09773691
H       18.10386536      11.70684316       1.04947529
