80
Dimer: struct; Energy: -4906.06228 eV
C       -1.29972200       1.48833600      -0.03228100
C       -0.45010500       2.63965400       0.01843500
C        0.99654200       2.45238200       0.05441800
C       -0.76903400       0.15867800      -0.04877100
C        0.67752200      -0.02870400      -0.01297900
C        1.52709100       1.12265000       0.03785500
C        2.93347700       0.94084900       0.07277000
C        3.48023700      -0.37253000       0.05696900
C        3.79427800       2.07240500       0.12351100
C        5.26507800       1.88272800       0.16006300
C        1.24802600      -1.29258500      -0.02698300
C        2.64560500      -1.46904700       0.00777700
C        1.86805800       3.52983300       0.10418700
C        3.26457400       3.34539700       0.13880400
C        4.95087500      -0.56291500       0.09346700
N        5.75909100       0.57580800       0.14293500
O        6.06925500       2.83065500       0.20492200
O        5.48910000      -1.68427500       0.08194900
C       -1.02041300       3.90352800       0.03216900
C       -2.41794600       4.08003500      -0.00262400
C       -2.70602800       1.67000700      -0.06716000
C       -3.25245200       2.98347100      -0.05156500
C       -3.56691500       0.53850500      -0.11766500
C       -3.03687800      -0.73433100      -0.13279200
C       -1.64041100      -0.91883000      -0.09829200
C       -4.72314700       3.17392200      -0.08803700
C       -5.03773600       0.72818300      -0.15412500
N       -5.53143900       2.03522700      -0.13722100
O       -5.26133100       4.29529300      -0.07673500
O       -5.84203300      -0.21964700      -0.19870900
H        0.62972700      -2.20233100      -0.06573200
H        3.07286500      -2.48716200      -0.00439800
H        1.49989900       4.56697900       0.11841200
H        3.93550500       4.22152900       0.17822500
H        6.75033500       0.44779700       0.16755800
H       -0.40199700       4.81321100       0.07071000
H       -2.84532000       5.09816700       0.00933800
H       -3.70773700      -1.61056600      -0.17200800
H       -1.27202900      -1.95588300      -0.11238600
H       -6.52266300       2.16338500      -0.16179200
C       13.09427573       5.83094167       4.43715081
C       11.91597845       6.61247478       4.66248570
C       10.61238343       6.03647189       4.34941412
C       13.02864391       4.50008280       3.91331954
C       11.72516536       3.92393820       3.60040033
C       10.54690502       4.70556138       3.82564551
C        9.27950290       4.14579173       3.52143825
C        9.19337708       2.82478060       3.00021613
C        8.09712501       4.90667815       3.73824778
C        6.77152783       4.32168083       3.42022843
C       11.60044139       2.64013770       3.09112014
C       10.33960052       2.08758967       2.79021295
C        9.43759919       6.74628677       4.54680352
C        8.18037244       6.18698795       4.24342648
C        7.86816345       2.23918823       2.68202580
N        6.73305375       3.02134146       2.91030748
O        5.70265611       4.93557603       3.58733469
O        7.72726259       1.09108090       2.22457243
C       12.04051184       7.89611016       5.17198446
C       13.30129356       8.44867184       5.47293096
C       14.36164597       6.39058707       4.74126783
C       14.44742068       7.71149686       5.26266029
C       15.54409418       5.62986201       4.52427116
C       15.46048597       4.34965388       4.01894321
C       14.20332275       3.79027013       3.71566002
C       15.77266725       8.29717375       5.58085785
C       16.86971352       6.21490093       4.84220874
N       16.90784775       7.51517412       5.35233407
O       15.91351955       9.44519758       6.03850902
O       17.93867471       5.60122953       4.67489915
H       12.48145061       2.00750399       2.90395643
H       10.26961100       1.06258197       2.38559192
H        9.44560040       7.77143417       4.94733318
H        7.26070459       6.77486791       4.41051302
H        5.83972719       2.62692216       2.69592730
H       11.15940677       8.52857601       5.35930165
H       13.37137899       9.47364796       5.87777213
H       16.38012552       3.76173922       3.85162042
H       14.19508427       2.76518818       3.31500807
H       17.80110873       7.90973629       5.56671399
