80
Dimer: struct; Energy: -4906.06228 eV
C       -1.29972200       1.48833600      -0.03228100
C       -0.45010500       2.63965400       0.01843500
C        0.99654200       2.45238200       0.05441800
C       -0.76903400       0.15867800      -0.04877100
C        0.67752200      -0.02870400      -0.01297900
C        1.52709100       1.12265000       0.03785500
C        2.93347700       0.94084900       0.07277000
C        3.48023700      -0.37253000       0.05696900
C        3.79427800       2.07240500       0.12351100
C        5.26507800       1.88272800       0.16006300
C        1.24802600      -1.29258500      -0.02698300
C        2.64560500      -1.46904700       0.00777700
C        1.86805800       3.52983300       0.10418700
C        3.26457400       3.34539700       0.13880400
C        4.95087500      -0.56291500       0.09346700
N        5.75909100       0.57580800       0.14293500
O        6.06925500       2.83065500       0.20492200
O        5.48910000      -1.68427500       0.08194900
C       -1.02041300       3.90352800       0.03216900
C       -2.41794600       4.08003500      -0.00262400
C       -2.70602800       1.67000700      -0.06716000
C       -3.25245200       2.98347100      -0.05156500
C       -3.56691500       0.53850500      -0.11766500
C       -3.03687800      -0.73433100      -0.13279200
C       -1.64041100      -0.91883000      -0.09829200
C       -4.72314700       3.17392200      -0.08803700
C       -5.03773600       0.72818300      -0.15412500
N       -5.53143900       2.03522700      -0.13722100
O       -5.26133100       4.29529300      -0.07673500
O       -5.84203300      -0.21964700      -0.19870900
H        0.62972700      -2.20233100      -0.06573200
H        3.07286500      -2.48716200      -0.00439800
H        1.49989900       4.56697900       0.11841200
H        3.93550500       4.22152900       0.17822500
H        6.75033500       0.44779700       0.16755800
H       -0.40199700       4.81321100       0.07071000
H       -2.84532000       5.09816700       0.00933800
H       -3.70773700      -1.61056600      -0.17200800
H       -1.27202900      -1.95588300      -0.11238600
H       -6.52266300       2.16338500      -0.16179200
C        7.71045914       5.96682894       5.14554504
C        8.71936988       5.06231668       5.60805017
C        9.91551794       5.60080527       6.24712214
C        7.84287024       7.38479838       5.29292894
C        9.03882382       7.92336458       5.93211500
C       10.04775926       7.01880970       6.39449726
C       11.21064575       7.54205857       7.01586501
C       11.36073780       8.94823616       7.17174160
C       12.22443983       6.65944103       7.48189059
C       13.44071043       7.20622000       8.13172491
C        9.22130695       9.28749739       6.10213768
C       10.37791490       9.80340285       6.71993519
C       10.92536372       4.77319979       6.71423928
C       12.07915771       5.29656302       7.33094203
C       12.57668150       9.49565924       7.82148275
N       13.54709630       8.59312060       8.26427998
O       14.36129772       6.48734741       8.55953308
O       12.76610423      10.71388194       7.98676902
C        8.53692049       3.69822961       5.43835633
C        7.38034591       3.18229074       4.82061360
C        6.54762748       5.44372691       4.52417214
C        6.39773963       4.03754256       4.36864313
C        5.53388708       6.32627908       4.05790396
C        5.67956673       7.68909359       4.20887942
C        6.83324829       8.21250178       4.82565566
C        5.18177560       3.49004242       3.71885805
C        4.31764334       5.77949714       3.40797921
N        4.21144005       4.39254499       3.27577863
O        4.99228589       2.27181174       3.55378132
O        3.39710978       6.49825569       2.97988201
H        8.46954518      10.01531769       5.76072185
H       10.49718797      10.89429758       6.84232848
H       10.86141759       3.67847852       6.61983879
H       12.86792293       4.61427308       7.69376371
H       14.36675379       8.96179410       8.70222888
H        9.28866619       2.97049198       5.78000417
H        7.26087773       2.09134419       4.69835411
H        4.89093735       8.37150805       3.84590327
H        6.89746755       9.30719231       4.92005577
H        3.39185859       4.02373580       2.83780689
