80
Dimer: struct; Energy: -4906.06228 eV
C       -1.29972200       1.48833600      -0.03228100
C       -0.45010500       2.63965400       0.01843500
C        0.99654200       2.45238200       0.05441800
C       -0.76903400       0.15867800      -0.04877100
C        0.67752200      -0.02870400      -0.01297900
C        1.52709100       1.12265000       0.03785500
C        2.93347700       0.94084900       0.07277000
C        3.48023700      -0.37253000       0.05696900
C        3.79427800       2.07240500       0.12351100
C        5.26507800       1.88272800       0.16006300
C        1.24802600      -1.29258500      -0.02698300
C        2.64560500      -1.46904700       0.00777700
C        1.86805800       3.52983300       0.10418700
C        3.26457400       3.34539700       0.13880400
C        4.95087500      -0.56291500       0.09346700
N        5.75909100       0.57580800       0.14293500
O        6.06925500       2.83065500       0.20492200
O        5.48910000      -1.68427500       0.08194900
C       -1.02041300       3.90352800       0.03216900
C       -2.41794600       4.08003500      -0.00262400
C       -2.70602800       1.67000700      -0.06716000
C       -3.25245200       2.98347100      -0.05156500
C       -3.56691500       0.53850500      -0.11766500
C       -3.03687800      -0.73433100      -0.13279200
C       -1.64041100      -0.91883000      -0.09829200
C       -4.72314700       3.17392200      -0.08803700
C       -5.03773600       0.72818300      -0.15412500
N       -5.53143900       2.03522700      -0.13722100
O       -5.26133100       4.29529300      -0.07673500
O       -5.84203300      -0.21964700      -0.19870900
H        0.62972700      -2.20233100      -0.06573200
H        3.07286500      -2.48716200      -0.00439800
H        1.49989900       4.56697900       0.11841200
H        3.93550500       4.22152900       0.17822500
H        6.75033500       0.44779700       0.16755800
H       -0.40199700       4.81321100       0.07071000
H       -2.84532000       5.09816700       0.00933800
H       -3.70773700      -1.61056600      -0.17200800
H       -1.27202900      -1.95588300      -0.11238600
H       -6.52266300       2.16338500      -0.16179200
C        5.19371546       2.16513680       8.57729496
C        5.34215229       0.75834461       8.79833011
C        4.83470053      -0.17419753       7.79732512
C        4.56132144       2.68192470       7.40132721
C        4.05402276       1.74953464       6.40022074
C        4.20238225       0.34274643       6.62136325
C        3.70920908      -0.56401493       5.64834922
C        3.07780104      -0.07008467       4.47296956
C        3.84708426      -1.96555219       5.84998188
C        3.33145864      -2.91415272       4.83270448
C        3.43291821       2.19235237       5.24211552
C        2.94435105       1.28841014       4.27787243
C        4.95015836      -1.54673414       7.95773240
C        4.45902768      -2.44447023       6.98905677
C        2.56200326      -1.01808239       3.45532146
N        2.71842799      -2.38596867       3.69358327
O        3.42159777      -4.14912144       4.95105043
O        2.00115154      -0.64868831       2.40829690
C        5.96343790       0.31540352       9.95618360
C        6.45203820       1.21928337      10.92041112
C        5.68678569       3.07192601       9.55019400
C        6.31831345       2.57770387      10.72532260
C        5.54874627       4.47347615       9.34875850
C        4.93662126       4.95203529       8.20965198
C        4.44558411       4.05438445       7.24091276
C        6.83412896       3.52569694      11.74305984
C        6.06429685       5.42208617      10.36609233
N        6.67748504       4.89360376      11.50499487
O        7.39516420       3.15627756      12.78996550
O        5.97398466       6.65706121      10.24800991
H        3.29958588       3.26510260       5.03508327
H        2.45386809       1.66879488       3.36464113
H        5.42939507      -1.98338788       8.84715970
H        4.56441879      -3.53289309       7.14247805
H        2.37086571      -3.02515502       3.00787264
H        6.09689765      -0.75737773      10.16300675
H        6.94274772       0.83898243      11.83362509
H        4.83099021       6.04046398       8.05621622
H        3.96620398       4.49080453       6.35146626
H        7.02505083       5.53267262      12.19080989
