80
Dimer: struct; Energy: -4906.06228 eV
C       -1.29972200       1.48833600      -0.03228100
C       -0.45010500       2.63965400       0.01843500
C        0.99654200       2.45238200       0.05441800
C       -0.76903400       0.15867800      -0.04877100
C        0.67752200      -0.02870400      -0.01297900
C        1.52709100       1.12265000       0.03785500
C        2.93347700       0.94084900       0.07277000
C        3.48023700      -0.37253000       0.05696900
C        3.79427800       2.07240500       0.12351100
C        5.26507800       1.88272800       0.16006300
C        1.24802600      -1.29258500      -0.02698300
C        2.64560500      -1.46904700       0.00777700
C        1.86805800       3.52983300       0.10418700
C        3.26457400       3.34539700       0.13880400
C        4.95087500      -0.56291500       0.09346700
N        5.75909100       0.57580800       0.14293500
O        6.06925500       2.83065500       0.20492200
O        5.48910000      -1.68427500       0.08194900
C       -1.02041300       3.90352800       0.03216900
C       -2.41794600       4.08003500      -0.00262400
C       -2.70602800       1.67000700      -0.06716000
C       -3.25245200       2.98347100      -0.05156500
C       -3.56691500       0.53850500      -0.11766500
C       -3.03687800      -0.73433100      -0.13279200
C       -1.64041100      -0.91883000      -0.09829200
C       -4.72314700       3.17392200      -0.08803700
C       -5.03773600       0.72818300      -0.15412500
N       -5.53143900       2.03522700      -0.13722100
O       -5.26133100       4.29529300      -0.07673500
O       -5.84203300      -0.21964700      -0.19870900
H        0.62972700      -2.20233100      -0.06573200
H        3.07286500      -2.48716200      -0.00439800
H        1.49989900       4.56697900       0.11841200
H        3.93550500       4.22152900       0.17822500
H        6.75033500       0.44779700       0.16755800
H       -0.40199700       4.81321100       0.07071000
H       -2.84532000       5.09816700       0.00933800
H       -3.70773700      -1.61056600      -0.17200800
H       -1.27202900      -1.95588300      -0.11238600
H       -6.52266300       2.16338500      -0.16179200
C        5.49675050       5.19972215       3.53399267
C        4.86709276       6.30167182       4.19670854
C        5.44860826       7.63360703       4.06654921
C        6.68092774       5.36872877       2.74719339
C        7.26239782       6.70057414       2.61681788
C        6.63276326       7.80247135       3.27965306
C        7.19785524       9.09741343       3.15320819
C        8.37427842       9.28589011       2.37560571
C        6.58689217      10.20499461       3.80433033
C        7.17753401      11.55935703       3.67238072
C        8.40787144       6.92424098       1.86786565
C        8.96617113       8.21214330       1.74464551
C        4.88254313       8.73769140       4.68581144
C        5.44670201      10.02254913       4.55799398
C        8.96539829      10.63992299       2.24321641
N        8.33303503      11.69917654       2.89930245
O        6.69084777      12.56640101       4.21669449
O        9.99139959      10.86893020       1.57827724
C        3.72153181       6.07822687       4.94542732
C        3.16319187       4.79038453       5.06864409
C        4.93180313       3.90481848       3.66039053
C        3.75529609       3.71671276       4.43785918
C        5.54282952       2.79713731       3.00949643
C        6.68308471       2.97991942       2.25604547
C        7.24721427       4.26472970       2.12809782
C        3.16412253       2.36263878       4.57030939
C        4.95223165       1.44274276       3.14152311
N        3.79659884       1.30328174       3.91447579
O        2.13800515       2.13370249       5.23507549
O        5.43895933       0.43557207       2.59749510
H        8.92136432       6.10410909       1.34332616
H        9.87914113       8.36151054       1.14179170
H        3.97276042       8.64950792       5.29894627
H        4.97499720      10.88434753       5.06208504
H        8.73123094      12.61190327       2.81026485
H        3.20800700       6.89848237       5.46975556
H        2.25005828       4.64094098       5.67133644
H        7.15500398       2.11813614       1.75206210
H        8.15706046       4.35313302       1.51511525
H        3.39832228       0.39060492       4.00363876
