80
Dimer: struct; Energy: -4906.06228 eV
C       -1.29972200       1.48833600      -0.03228100
C       -0.45010500       2.63965400       0.01843500
C        0.99654200       2.45238200       0.05441800
C       -0.76903400       0.15867800      -0.04877100
C        0.67752200      -0.02870400      -0.01297900
C        1.52709100       1.12265000       0.03785500
C        2.93347700       0.94084900       0.07277000
C        3.48023700      -0.37253000       0.05696900
C        3.79427800       2.07240500       0.12351100
C        5.26507800       1.88272800       0.16006300
C        1.24802600      -1.29258500      -0.02698300
C        2.64560500      -1.46904700       0.00777700
C        1.86805800       3.52983300       0.10418700
C        3.26457400       3.34539700       0.13880400
C        4.95087500      -0.56291500       0.09346700
N        5.75909100       0.57580800       0.14293500
O        6.06925500       2.83065500       0.20492200
O        5.48910000      -1.68427500       0.08194900
C       -1.02041300       3.90352800       0.03216900
C       -2.41794600       4.08003500      -0.00262400
C       -2.70602800       1.67000700      -0.06716000
C       -3.25245200       2.98347100      -0.05156500
C       -3.56691500       0.53850500      -0.11766500
C       -3.03687800      -0.73433100      -0.13279200
C       -1.64041100      -0.91883000      -0.09829200
C       -4.72314700       3.17392200      -0.08803700
C       -5.03773600       0.72818300      -0.15412500
N       -5.53143900       2.03522700      -0.13722100
O       -5.26133100       4.29529300      -0.07673500
O       -5.84203300      -0.21964700      -0.19870900
H        0.62972700      -2.20233100      -0.06573200
H        3.07286500      -2.48716200      -0.00439800
H        1.49989900       4.56697900       0.11841200
H        3.93550500       4.22152900       0.17822500
H        6.75033500       0.44779700       0.16755800
H       -0.40199700       4.81321100       0.07071000
H       -2.84532000       5.09816700       0.00933800
H       -3.70773700      -1.61056600      -0.17200800
H       -1.27202900      -1.95588300      -0.11238600
H       -6.52266300       2.16338500      -0.16179200
C        3.67659351       5.63744798       5.31272364
C        3.49037423       7.00986149       5.67570827
C        4.17376825       8.04547971       4.90784069
C        4.51461675       5.25337090       4.21723566
C        5.19787895       6.28885413       3.44922226
C        5.01171592       7.66124882       3.81232524
C        5.67591310       8.66820373       3.06594990
C        6.51286523       8.30675882       1.97369111
C        5.50364690      10.03752370       3.41128912
C        6.19807645      11.09087073       2.63103678
C        6.02153636       5.97625949       2.37826980
C        6.67959011       6.97945445       1.63925742
C        4.03112081       9.39052977       5.21347086
C        4.69250889      10.38804756       4.46983387
C        7.20753210       9.35954890       1.19303391
N        7.01027801      10.69144199       1.56653342
O        6.08802346      12.30395721       2.88320356
O        7.95152881       9.10766403       0.22851850
C        2.66658526       7.32261340       6.74639744
C        2.00850183       6.31948299       7.48539632
C        3.01251869       4.63047706       6.05900219
C        2.17549520       4.99224497       7.15103045
C        3.18490999       3.26111648       5.71388367
C        3.99623240       2.91094840       4.65538578
C        4.65754025       3.90839152       3.91165910
C        1.48079449       3.93944905       7.93177193
C        2.49054381       2.20775142       6.49420358
N        1.67822776       2.60750651       7.55850190
O        0.73663931       4.19137775       8.89614098
O        2.60071836       0.99462254       6.24232465
H        6.19042274       4.93394963       2.06762457
H        7.32977671       6.70198264       0.79100966
H        3.39638785       9.72647733       6.04753832
H        4.56096417      11.45179764       4.73524197
H        7.47836565      11.40123608       1.04056376
H        2.49761216       8.36498247       7.05681930
H        1.35809571       6.59687900       8.33357538
H        4.12801563       1.84718876       4.39000667
H        5.29241779       3.57267484       3.07762811
H        1.21011747       1.89781635       8.08458731
