80
Dimer: struct; Energy: -4906.06228 eV
C       -1.29972200       1.48833600      -0.03228100
C       -0.45010500       2.63965400       0.01843500
C        0.99654200       2.45238200       0.05441800
C       -0.76903400       0.15867800      -0.04877100
C        0.67752200      -0.02870400      -0.01297900
C        1.52709100       1.12265000       0.03785500
C        2.93347700       0.94084900       0.07277000
C        3.48023700      -0.37253000       0.05696900
C        3.79427800       2.07240500       0.12351100
C        5.26507800       1.88272800       0.16006300
C        1.24802600      -1.29258500      -0.02698300
C        2.64560500      -1.46904700       0.00777700
C        1.86805800       3.52983300       0.10418700
C        3.26457400       3.34539700       0.13880400
C        4.95087500      -0.56291500       0.09346700
N        5.75909100       0.57580800       0.14293500
O        6.06925500       2.83065500       0.20492200
O        5.48910000      -1.68427500       0.08194900
C       -1.02041300       3.90352800       0.03216900
C       -2.41794600       4.08003500      -0.00262400
C       -2.70602800       1.67000700      -0.06716000
C       -3.25245200       2.98347100      -0.05156500
C       -3.56691500       0.53850500      -0.11766500
C       -3.03687800      -0.73433100      -0.13279200
C       -1.64041100      -0.91883000      -0.09829200
C       -4.72314700       3.17392200      -0.08803700
C       -5.03773600       0.72818300      -0.15412500
N       -5.53143900       2.03522700      -0.13722100
O       -5.26133100       4.29529300      -0.07673500
O       -5.84203300      -0.21964700      -0.19870900
H        0.62972700      -2.20233100      -0.06573200
H        3.07286500      -2.48716200      -0.00439800
H        1.49989900       4.56697900       0.11841200
H        3.93550500       4.22152900       0.17822500
H        6.75033500       0.44779700       0.16755800
H       -0.40199700       4.81321100       0.07071000
H       -2.84532000       5.09816700       0.00933800
H       -3.70773700      -1.61056600      -0.17200800
H       -1.27202900      -1.95588300      -0.11238600
H       -6.52266300       2.16338500      -0.16179200
C        1.48897548       1.04340934       6.80226589
C        2.40521067       0.10418097       7.37525580
C        3.21742123       0.51193858       8.51683403
C        1.34773830       2.37134005       7.31854502
C        2.15971785       2.77913000       8.46017277
C        3.07602412       1.83989585       9.03305116
C        3.86566688       2.23604138      10.14288234
C        3.73974198       3.55130249      10.67051071
C        4.78193418       1.31713321      10.72600671
C        5.60792056       1.73100966      11.88661811
C        2.06541119       4.05194670       9.00249187
C        2.85154604       4.44167558      10.10506955
C        4.12134492      -0.35468442       9.11248852
C        4.90411278       0.04234738      10.21480978
C        4.56535924       3.96580463      11.83107040
N        5.45224793       3.03174644      12.37265511
O        6.42590293       0.97459670      12.43981143
O        4.50113735       5.10025346      12.33720129
C        2.49943010      -1.16868035       6.83325571
C        1.71331268      -1.55845449       5.73073167
C        0.69936320       0.64740923       5.69248491
C        0.82536069      -0.66794254       5.16524263
C       -0.21676202       1.56632432       5.10914659
C       -0.33857110       2.84106391       5.62049876
C        0.44406064       3.23811241       6.72285544
C       -0.00024889      -1.08250772       4.00461776
C       -1.04269232       1.15247136       3.94846302
N       -0.88696274      -0.14840217       3.46279979
O        0.06384087      -2.21702552       3.49864886
O       -1.86050946       1.90885728       3.39500248
H        1.37348356       4.80259272       8.59115303
H        2.75598798       5.46179305      10.51675692
H        4.25934233      -1.38309170       8.74540487
H        5.61625119      -0.66842057      10.66975759
H        6.00885322       3.31084262      13.15486585
H        3.19125156      -1.91931168       7.24481688
H        1.80865200      -2.57866933       5.31908074
H       -1.05054976       3.55200139       5.16549133
H        0.30632157       4.26650548       7.09003184
H       -1.44346921      -0.42761810       2.68056438
