80
Dimer: struct; Energy: -4906.06228 eV
C       -1.29972200       1.48833600      -0.03228100
C       -0.45010500       2.63965400       0.01843500
C        0.99654200       2.45238200       0.05441800
C       -0.76903400       0.15867800      -0.04877100
C        0.67752200      -0.02870400      -0.01297900
C        1.52709100       1.12265000       0.03785500
C        2.93347700       0.94084900       0.07277000
C        3.48023700      -0.37253000       0.05696900
C        3.79427800       2.07240500       0.12351100
C        5.26507800       1.88272800       0.16006300
C        1.24802600      -1.29258500      -0.02698300
C        2.64560500      -1.46904700       0.00777700
C        1.86805800       3.52983300       0.10418700
C        3.26457400       3.34539700       0.13880400
C        4.95087500      -0.56291500       0.09346700
N        5.75909100       0.57580800       0.14293500
O        6.06925500       2.83065500       0.20492200
O        5.48910000      -1.68427500       0.08194900
C       -1.02041300       3.90352800       0.03216900
C       -2.41794600       4.08003500      -0.00262400
C       -2.70602800       1.67000700      -0.06716000
C       -3.25245200       2.98347100      -0.05156500
C       -3.56691500       0.53850500      -0.11766500
C       -3.03687800      -0.73433100      -0.13279200
C       -1.64041100      -0.91883000      -0.09829200
C       -4.72314700       3.17392200      -0.08803700
C       -5.03773600       0.72818300      -0.15412500
N       -5.53143900       2.03522700      -0.13722100
O       -5.26133100       4.29529300      -0.07673500
O       -5.84203300      -0.21964700      -0.19870900
H        0.62972700      -2.20233100      -0.06573200
H        3.07286500      -2.48716200      -0.00439800
H        1.49989900       4.56697900       0.11841200
H        3.93550500       4.22152900       0.17822500
H        6.75033500       0.44779700       0.16755800
H       -0.40199700       4.81321100       0.07071000
H       -2.84532000       5.09816700       0.00933800
H       -3.70773700      -1.61056600      -0.17200800
H       -1.27202900      -1.95588300      -0.11238600
H       -6.52266300       2.16338500      -0.16179200
C       14.10195104       2.06365354       6.32450557
C       13.52718342       2.63096777       5.14224036
C       12.31260601       2.03992197       4.59031673
C       13.51781721       0.93271708       6.97999200
C       12.30320368       0.34173245       6.42829600
C       11.72854284       0.90901630       5.24595867
C       10.54775751       0.33465138       4.70926212
C        9.95207134      -0.78945555       5.34620966
C        9.96168227       0.88401203       3.53508552
C        8.72687976       0.28365083       2.97348491
C       11.69334331      -0.75394516       7.02043366
C       10.52039507      -1.32164690       6.48426082
C       11.71174248       2.54668599       3.44791969
C       10.53883495       1.97349317       2.91762746
C        8.71730723      -1.39025920       4.78518627
N        8.17543503      -0.81916950       3.63081141
O        8.16737082       0.71769872       1.95082624
O        8.14976822      -2.37247821       5.29549242
C       14.13673440       3.72674494       4.55017842
C       15.30963077       4.29448617       5.08631997
C       15.28267569       2.63787680       6.86123121
C       15.87797794       3.76207092       6.22419676
C       15.86895433       2.08843911       8.03527104
C       15.29162557       0.99887382       8.65237599
C       14.11869068       0.42571971       8.12221721
C       17.11281023       4.36292463       6.78518659
C       17.10382365       2.68875173       8.59682603
N       17.65490050       3.79170670       7.93940908
O       17.68020065       5.34527004       6.27498243
O       17.66358955       2.25464516       9.61931160
H       12.10364431      -1.21882597       7.92981359
H       10.05579355      -2.19410329       6.97642215
H       12.12963047       3.41436772       2.91508456
H       10.08139650       2.39744538       2.00640614
H        7.34321794      -1.22390736       3.25244682
H       13.72621801       4.19166998       3.64091063
H       15.77421612       5.16711775       4.59432508
H       15.74910285       0.57470019       9.56351195
H       13.70069425      -0.44203883       8.65481177
H       18.48714283       4.19651585       8.31763584
