80
Dimer: struct; Energy: -4906.06228 eV
C       -1.29972200       1.48833600      -0.03228100
C       -0.45010500       2.63965400       0.01843500
C        0.99654200       2.45238200       0.05441800
C       -0.76903400       0.15867800      -0.04877100
C        0.67752200      -0.02870400      -0.01297900
C        1.52709100       1.12265000       0.03785500
C        2.93347700       0.94084900       0.07277000
C        3.48023700      -0.37253000       0.05696900
C        3.79427800       2.07240500       0.12351100
C        5.26507800       1.88272800       0.16006300
C        1.24802600      -1.29258500      -0.02698300
C        2.64560500      -1.46904700       0.00777700
C        1.86805800       3.52983300       0.10418700
C        3.26457400       3.34539700       0.13880400
C        4.95087500      -0.56291500       0.09346700
N        5.75909100       0.57580800       0.14293500
O        6.06925500       2.83065500       0.20492200
O        5.48910000      -1.68427500       0.08194900
C       -1.02041300       3.90352800       0.03216900
C       -2.41794600       4.08003500      -0.00262400
C       -2.70602800       1.67000700      -0.06716000
C       -3.25245200       2.98347100      -0.05156500
C       -3.56691500       0.53850500      -0.11766500
C       -3.03687800      -0.73433100      -0.13279200
C       -1.64041100      -0.91883000      -0.09829200
C       -4.72314700       3.17392200      -0.08803700
C       -5.03773600       0.72818300      -0.15412500
N       -5.53143900       2.03522700      -0.13722100
O       -5.26133100       4.29529300      -0.07673500
O       -5.84203300      -0.21964700      -0.19870900
H        0.62972700      -2.20233100      -0.06573200
H        3.07286500      -2.48716200      -0.00439800
H        1.49989900       4.56697900       0.11841200
H        3.93550500       4.22152900       0.17822500
H        6.75033500       0.44779700       0.16755800
H       -0.40199700       4.81321100       0.07071000
H       -2.84532000       5.09816700       0.00933800
H       -3.70773700      -1.61056600      -0.17200800
H       -1.27202900      -1.95588300      -0.11238600
H       -6.52266300       2.16338500      -0.16179200
C        6.67339069      -0.05274220       4.40470823
C        5.56111802      -0.53515291       5.16634050
C        4.34703486       0.27116447       5.23710403
C        6.62711108       1.19869560       3.71069549
C        5.41308283       2.00496942       3.78123110
C        4.30087926       1.52256366       4.54297616
C        3.12047925       2.30621111       4.61185807
C        3.05485438       3.55262720       3.92899580
C        2.00467446       1.84399543       5.36372796
C        0.77007700       2.66320570       5.43604463
C        5.31088192       3.22476256       3.12952121
C        4.13653288       4.00030306       3.20034095
C        3.23892378      -0.14512418       5.95939992
C        2.06805822       0.63600552       6.02559781
C        1.82061300       4.37228461       4.00086114
N        0.74883432       3.88049915       4.75038617
O       -0.23776065       2.31416288       6.07613131
O        1.70172659       5.46925473       3.42658799
C        5.66305974      -1.75497684       5.81784245
C        6.83734263      -2.53054651       5.74702479
C        7.85377333      -0.83623752       4.33579243
C        7.91900536      -2.08266329       5.01856446
C        8.96971328      -0.37399364       3.58413920
C        8.90603644       0.83410108       2.92252607
C        7.73519710       1.61520373       2.98858743
C        9.15328442      -2.90238498       4.94675136
C       10.20435879      -1.19317192       3.51189719
N       10.22521331      -2.41052487       4.19746942
O        9.27206107      -3.99944418       5.52085578
O       11.21236049      -0.84413126       2.87207979
H        6.14303013       3.63024516       2.53408345
H        4.08264531       4.96806928       2.67139655
H        3.23475107      -1.10019282       6.50642981
H        1.20021962       0.28016713       6.60830263
H       -0.08316704       4.43273699       4.79901626
H        4.83076075      -2.16045406       6.41308486
H        6.89125729      -3.49847426       6.27579078
H        9.77391059       1.19014469       2.33994141
H        7.73918366       2.57036045       2.44173955
H       11.05716602      -2.96284296       4.14896545
