80
Dimer: struct; Energy: -4906.06228 eV
C       -1.29972200       1.48833600      -0.03228100
C       -0.45010500       2.63965400       0.01843500
C        0.99654200       2.45238200       0.05441800
C       -0.76903400       0.15867800      -0.04877100
C        0.67752200      -0.02870400      -0.01297900
C        1.52709100       1.12265000       0.03785500
C        2.93347700       0.94084900       0.07277000
C        3.48023700      -0.37253000       0.05696900
C        3.79427800       2.07240500       0.12351100
C        5.26507800       1.88272800       0.16006300
C        1.24802600      -1.29258500      -0.02698300
C        2.64560500      -1.46904700       0.00777700
C        1.86805800       3.52983300       0.10418700
C        3.26457400       3.34539700       0.13880400
C        4.95087500      -0.56291500       0.09346700
N        5.75909100       0.57580800       0.14293500
O        6.06925500       2.83065500       0.20492200
O        5.48910000      -1.68427500       0.08194900
C       -1.02041300       3.90352800       0.03216900
C       -2.41794600       4.08003500      -0.00262400
C       -2.70602800       1.67000700      -0.06716000
C       -3.25245200       2.98347100      -0.05156500
C       -3.56691500       0.53850500      -0.11766500
C       -3.03687800      -0.73433100      -0.13279200
C       -1.64041100      -0.91883000      -0.09829200
C       -4.72314700       3.17392200      -0.08803700
C       -5.03773600       0.72818300      -0.15412500
N       -5.53143900       2.03522700      -0.13722100
O       -5.26133100       4.29529300      -0.07673500
O       -5.84203300      -0.21964700      -0.19870900
H        0.62972700      -2.20233100      -0.06573200
H        3.07286500      -2.48716200      -0.00439800
H        1.49989900       4.56697900       0.11841200
H        3.93550500       4.22152900       0.17822500
H        6.75033500       0.44779700       0.16755800
H       -0.40199700       4.81321100       0.07071000
H       -2.84532000       5.09816700       0.00933800
H       -3.70773700      -1.61056600      -0.17200800
H       -1.27202900      -1.95588300      -0.11238600
H       -6.52266300       2.16338500      -0.16179200
C        8.47556857      12.13463483       2.21096801
C        8.83466230      11.39310932       3.38192740
C        8.73828429       9.93735278       3.35668254
C        8.02473754      11.48719091       1.01620451
C        7.92849947      10.03150920       0.99078166
C        8.28749529       9.29003836       2.16181138
C        8.19395294       7.87481738       2.13748726
C        7.74823442       7.21284710       0.95965412
C        8.54610053       7.12039576       3.29109555
C        8.44839683       5.64039752       3.26609062
C        7.49855045       9.35037287      -0.13805103
C        7.40701093       7.94439093      -0.15828601
C        9.07234532       9.16740718       4.46054156
C        8.97813423       7.76176767       4.43272500
C        7.65033204       5.73294529       0.93395517
N        8.00607665       5.03147298       2.08882860
O        8.74137611       4.92578177       4.24116295
O        7.26808667       5.09673511      -0.06423927
C        9.26486205      12.07404148       4.51067755
C        9.35644838      13.47998061       4.53094724
C        8.56903169      13.54976569       2.23519114
C        9.01497367      14.21140263       3.41306311
C        8.21668196      14.30428511       1.08170769
C        7.78454841      13.66260078      -0.05968679
C        7.69042460      12.25700079      -0.08760766
C        9.11287479      15.69136789       3.43882728
C        8.31429983      15.78430721       1.10674379
N        8.75687398      16.39292721       2.28407222
O        9.49532633      16.32753150       4.43696022
O        8.02109694      16.49905965       0.13184681
H        7.21367666       9.88353914      -1.05784100
H        7.06143389       7.42783896      -1.07097876
H        9.42282158       9.62688431       5.39727118
H        9.25067671       7.17322726       5.32639747
H        7.94017711       4.03401357       2.07180638
H        9.54990867      11.54074662       5.43034702
H        9.70223056      13.99664094       5.44357049
H        7.51177797      14.25106672      -0.95337667
H        7.33985888      11.79731403      -1.02418367
H        8.82277656      17.39038144       2.30125152
