80
Dimer: struct; Energy: -4906.06228 eV
C       -1.29972200       1.48833600      -0.03228100
C       -0.45010500       2.63965400       0.01843500
C        0.99654200       2.45238200       0.05441800
C       -0.76903400       0.15867800      -0.04877100
C        0.67752200      -0.02870400      -0.01297900
C        1.52709100       1.12265000       0.03785500
C        2.93347700       0.94084900       0.07277000
C        3.48023700      -0.37253000       0.05696900
C        3.79427800       2.07240500       0.12351100
C        5.26507800       1.88272800       0.16006300
C        1.24802600      -1.29258500      -0.02698300
C        2.64560500      -1.46904700       0.00777700
C        1.86805800       3.52983300       0.10418700
C        3.26457400       3.34539700       0.13880400
C        4.95087500      -0.56291500       0.09346700
N        5.75909100       0.57580800       0.14293500
O        6.06925500       2.83065500       0.20492200
O        5.48910000      -1.68427500       0.08194900
C       -1.02041300       3.90352800       0.03216900
C       -2.41794600       4.08003500      -0.00262400
C       -2.70602800       1.67000700      -0.06716000
C       -3.25245200       2.98347100      -0.05156500
C       -3.56691500       0.53850500      -0.11766500
C       -3.03687800      -0.73433100      -0.13279200
C       -1.64041100      -0.91883000      -0.09829200
C       -4.72314700       3.17392200      -0.08803700
C       -5.03773600       0.72818300      -0.15412500
N       -5.53143900       2.03522700      -0.13722100
O       -5.26133100       4.29529300      -0.07673500
O       -5.84203300      -0.21964700      -0.19870900
H        0.62972700      -2.20233100      -0.06573200
H        3.07286500      -2.48716200      -0.00439800
H        1.49989900       4.56697900       0.11841200
H        3.93550500       4.22152900       0.17822500
H        6.75033500       0.44779700       0.16755800
H       -0.40199700       4.81321100       0.07071000
H       -2.84532000       5.09816700       0.00933800
H       -3.70773700      -1.61056600      -0.17200800
H       -1.27202900      -1.95588300      -0.11238600
H       -6.52266300       2.16338500      -0.16179200
C        5.68833674       0.56821225       7.72106350
C        6.75498962       1.39664294       8.19636184
C        6.69124610       1.92473943       9.55511273
C        4.56121699       0.24370579       8.54215345
C        4.49745568       0.77156453       9.90090912
C        5.56408269       1.60008842      10.37611709
C        5.50237315       2.11353378      11.69700998
C        4.39068088       1.80232097      12.52854318
C        6.55242131       2.93866831      12.18744231
C        6.48826746       3.47583788      13.56870955
C        3.43074833       0.49059942      10.74130196
C        3.37311810       1.00252656      12.05285963
C        7.69467610       2.73212155      10.06909727
C        7.62995854       3.24038876      11.38170841
C        4.32591107       2.33910455      13.90985521
N        5.37857907       3.14521286      14.35079706
O        7.37365098       4.20183969      14.05481240
O        3.38170477       2.10323868      14.68452212
C        7.82183004       1.67745835       7.35623593
C        7.87951897       1.16553957       6.04471966
C        5.74992122       0.05477753       6.40026465
C        6.86181034       0.36598515       5.56908328
C        4.69980618      -0.77017369       5.90966518
C        3.62235874      -1.07156357       6.71561226
C        3.55763473      -0.56343761       8.02823140
C        6.92662211      -0.17077351       4.18769443
C        4.76391722      -1.30727471       4.52834923
N        5.87384310      -0.97666485       3.74658579
O        7.87094007       0.06493334       3.41313097
O        3.87848434      -2.03305740       4.04202505
H        2.59164741      -0.14194941      10.41385034
H        2.51159477       0.76269000      12.70055823
H        8.57697224       3.00445848       9.47009698
H        8.44328410       3.88113113      11.76545370
H        5.33518969       3.50715857      15.28174842
H        8.66097962       2.30985587       7.68387638
H        8.74114520       1.40516072       5.39698026
H        2.80885428      -1.71214743       6.33189325
H        2.67537950      -0.83554117       8.62737098
H        5.91734064      -1.33850190       2.81559968
