80
Dimer: struct; Energy: -4906.06228 eV
C       -1.29972200       1.48833600      -0.03228100
C       -0.45010500       2.63965400       0.01843500
C        0.99654200       2.45238200       0.05441800
C       -0.76903400       0.15867800      -0.04877100
C        0.67752200      -0.02870400      -0.01297900
C        1.52709100       1.12265000       0.03785500
C        2.93347700       0.94084900       0.07277000
C        3.48023700      -0.37253000       0.05696900
C        3.79427800       2.07240500       0.12351100
C        5.26507800       1.88272800       0.16006300
C        1.24802600      -1.29258500      -0.02698300
C        2.64560500      -1.46904700       0.00777700
C        1.86805800       3.52983300       0.10418700
C        3.26457400       3.34539700       0.13880400
C        4.95087500      -0.56291500       0.09346700
N        5.75909100       0.57580800       0.14293500
O        6.06925500       2.83065500       0.20492200
O        5.48910000      -1.68427500       0.08194900
C       -1.02041300       3.90352800       0.03216900
C       -2.41794600       4.08003500      -0.00262400
C       -2.70602800       1.67000700      -0.06716000
C       -3.25245200       2.98347100      -0.05156500
C       -3.56691500       0.53850500      -0.11766500
C       -3.03687800      -0.73433100      -0.13279200
C       -1.64041100      -0.91883000      -0.09829200
C       -4.72314700       3.17392200      -0.08803700
C       -5.03773600       0.72818300      -0.15412500
N       -5.53143900       2.03522700      -0.13722100
O       -5.26133100       4.29529300      -0.07673500
O       -5.84203300      -0.21964700      -0.19870900
H        0.62972700      -2.20233100      -0.06573200
H        3.07286500      -2.48716200      -0.00439800
H        1.49989900       4.56697900       0.11841200
H        3.93550500       4.22152900       0.17822500
H        6.75033500       0.44779700       0.16755800
H       -0.40199700       4.81321100       0.07071000
H       -2.84532000       5.09816700       0.00933800
H       -3.70773700      -1.61056600      -0.17200800
H       -1.27202900      -1.95588300      -0.11238600
H       -6.52266300       2.16338500      -0.16179200
C       13.07084387       1.39786634       6.41279264
C       11.68089021       1.05657642       6.45157798
C       10.76304472       1.71472202       5.52769641
C       13.58483404       2.36683877       5.49257603
C       12.66716460       3.02487952       4.56857250
C       11.27719825       2.68363582       4.60748123
C       10.38473625       3.32326307       3.70938280
C       10.87617105       4.28885152       2.78727036
C        9.00000759       2.99775612       3.73270152
C        8.06636052       3.66643856       2.79369514
C       13.10807386       3.97091517       3.65551079
C       12.21837360       4.60408803       2.76494931
C        9.40708283       1.42450856       5.51987111
C        8.52351494       2.06193153       4.62629870
C        9.94312494       4.95785726       1.84800951
N        8.59151172       4.60823850       1.90509444
O        6.84638187       3.42536518       2.76515932
O       10.31117670       5.80941070       1.01935898
C       11.23989776       0.11042128       7.36433941
C       12.12954133      -0.52278548       8.25487143
C       13.96332867       0.75837101       7.31080939
C       13.47163628      -0.20729510       8.23262153
C       15.34803684       1.08398469       7.28772346
C       15.82415412       2.01995600       6.39410745
C       14.94068631       2.65731456       5.50045825
C       14.40467395      -0.87634186       9.17196317
C       16.28168039       0.41536028       8.22680419
N       15.75626760      -0.52656279       9.11512549
O       14.03662746      -1.72804246      10.00045007
O       17.50162651       0.65653067       8.25563827
H       14.16812369       4.26065537       3.59404623
H       12.59686450       5.35388441       2.04814563
H        8.97310329       0.68617055       6.21119879
H        7.44815396       1.81159487       4.64179142
H        7.96240304       5.05899418       1.27216525
H       10.17984678      -0.17938900       7.42556731
H       11.75116214      -1.27278625       8.97160878
H       16.89949266       2.27052723       6.37866253
H       15.37441830       3.39577190       4.80912607
H       16.38525334      -0.97736117       9.74814286
