80
Dimer: struct; Energy: -4906.06228 eV
C       -1.29972200       1.48833600      -0.03228100
C       -0.45010500       2.63965400       0.01843500
C        0.99654200       2.45238200       0.05441800
C       -0.76903400       0.15867800      -0.04877100
C        0.67752200      -0.02870400      -0.01297900
C        1.52709100       1.12265000       0.03785500
C        2.93347700       0.94084900       0.07277000
C        3.48023700      -0.37253000       0.05696900
C        3.79427800       2.07240500       0.12351100
C        5.26507800       1.88272800       0.16006300
C        1.24802600      -1.29258500      -0.02698300
C        2.64560500      -1.46904700       0.00777700
C        1.86805800       3.52983300       0.10418700
C        3.26457400       3.34539700       0.13880400
C        4.95087500      -0.56291500       0.09346700
N        5.75909100       0.57580800       0.14293500
O        6.06925500       2.83065500       0.20492200
O        5.48910000      -1.68427500       0.08194900
C       -1.02041300       3.90352800       0.03216900
C       -2.41794600       4.08003500      -0.00262400
C       -2.70602800       1.67000700      -0.06716000
C       -3.25245200       2.98347100      -0.05156500
C       -3.56691500       0.53850500      -0.11766500
C       -3.03687800      -0.73433100      -0.13279200
C       -1.64041100      -0.91883000      -0.09829200
C       -4.72314700       3.17392200      -0.08803700
C       -5.03773600       0.72818300      -0.15412500
N       -5.53143900       2.03522700      -0.13722100
O       -5.26133100       4.29529300      -0.07673500
O       -5.84203300      -0.21964700      -0.19870900
H        0.62972700      -2.20233100      -0.06573200
H        3.07286500      -2.48716200      -0.00439800
H        1.49989900       4.56697900       0.11841200
H        3.93550500       4.22152900       0.17822500
H        6.75033500       0.44779700       0.16755800
H       -0.40199700       4.81321100       0.07071000
H       -2.84532000       5.09816700       0.00933800
H       -3.70773700      -1.61056600      -0.17200800
H       -1.27202900      -1.95588300      -0.11238600
H       -6.52266300       2.16338500      -0.16179200
C        4.20519418       8.26060303       4.41791979
C        5.19947935       7.92891972       3.44255448
C        4.78101253       7.62705785       2.07766692
C        2.81197863       8.30433758       4.09091859
C        2.39343107       8.00269089       2.72609459
C        3.38775133       7.67089838       1.75079537
C        2.98119037       7.37747663       0.42384243
C        1.60138557       7.41574798       0.07911851
C        3.95422274       7.04552951      -0.55951464
C        3.52948209       6.73858695      -1.94729981
C        1.05844566       8.02959827       2.35172035
C        0.65856279       7.73753379       1.03249096
C        5.69911588       7.29933025       1.09146277
C        5.29156054       7.00840867      -0.22563069
C        1.17597733       7.10896051      -1.30842031
N        2.16457266       6.78791604      -2.24220828
O        4.33115192       6.44182587      -2.85092413
O       -0.01366240       7.12562541      -1.67138955
C        6.53444487       7.90223769       3.81668338
C        6.93436694       8.19432081       5.13585492
C        4.61161186       8.55398683       5.74482147
C        5.99146060       8.51584164       6.08916499
C        3.63863036       8.88571537       6.72830362
C        2.30138156       8.92259310       6.39411023
C        1.89378000       8.63180156       5.07704856
C        6.41694119       8.82260842       7.47675498
C        4.06336909       9.19257226       8.11612830
N        5.42836626       9.14338813       8.41067216
O        7.60659990       8.80614501       7.83963759
O        3.26179526       9.48907916       9.01991265
H        0.26420030       8.27992804       3.07140239
H       -0.41159697       7.76645492       0.76197449
H        6.77841500       7.25485545       1.30253293
H        6.04423271       6.75038561      -0.99127970
H        1.87814426       6.58108111      -3.17748142
H        7.32862363       7.65209397       3.09685345
H        8.00457620       8.16562821       5.40643446
H        1.54858247       9.18041227       7.15974741
H        0.81452783       8.67609535       4.86577698
H        5.71493267       9.35015377       9.34591591
