80
Dimer: struct; Energy: -4906.06228 eV
C       -1.29972200       1.48833600      -0.03228100
C       -0.45010500       2.63965400       0.01843500
C        0.99654200       2.45238200       0.05441800
C       -0.76903400       0.15867800      -0.04877100
C        0.67752200      -0.02870400      -0.01297900
C        1.52709100       1.12265000       0.03785500
C        2.93347700       0.94084900       0.07277000
C        3.48023700      -0.37253000       0.05696900
C        3.79427800       2.07240500       0.12351100
C        5.26507800       1.88272800       0.16006300
C        1.24802600      -1.29258500      -0.02698300
C        2.64560500      -1.46904700       0.00777700
C        1.86805800       3.52983300       0.10418700
C        3.26457400       3.34539700       0.13880400
C        4.95087500      -0.56291500       0.09346700
N        5.75909100       0.57580800       0.14293500
O        6.06925500       2.83065500       0.20492200
O        5.48910000      -1.68427500       0.08194900
C       -1.02041300       3.90352800       0.03216900
C       -2.41794600       4.08003500      -0.00262400
C       -2.70602800       1.67000700      -0.06716000
C       -3.25245200       2.98347100      -0.05156500
C       -3.56691500       0.53850500      -0.11766500
C       -3.03687800      -0.73433100      -0.13279200
C       -1.64041100      -0.91883000      -0.09829200
C       -4.72314700       3.17392200      -0.08803700
C       -5.03773600       0.72818300      -0.15412500
N       -5.53143900       2.03522700      -0.13722100
O       -5.26133100       4.29529300      -0.07673500
O       -5.84203300      -0.21964700      -0.19870900
H        0.62972700      -2.20233100      -0.06573200
H        3.07286500      -2.48716200      -0.00439800
H        1.49989900       4.56697900       0.11841200
H        3.93550500       4.22152900       0.17822500
H        6.75033500       0.44779700       0.16755800
H       -0.40199700       4.81321100       0.07071000
H       -2.84532000       5.09816700       0.00933800
H       -3.70773700      -1.61056600      -0.17200800
H       -1.27202900      -1.95588300      -0.11238600
H       -6.52266300       2.16338500      -0.16179200
C        6.87238068       5.21427987       4.87150102
C        7.62901165       5.82723813       5.92114194
C        7.52685411       7.26916711       6.12003326
C        6.01841036       5.97704238       4.01195457
C        5.91603594       7.41887280       4.21085624
C        6.67278167       8.03179710       5.26044059
C        6.57357853       9.43353644       5.45403243
C        5.73025024      10.20889089       4.61035984
C        7.31769929      10.06106717       6.49155903
C        7.21426555      11.52692859       6.69433432
C        5.10504768       8.20814089       3.40934515
C        5.00915829       9.60031770       3.60485249
C        8.23608451       7.91715324       7.12004524
C        8.13507561       9.30978675       7.30936250
C        5.62633041      11.67472063       4.81259369
N        6.37441809      12.24977550       5.84314063
O        7.83875290      12.13343108       7.58284366
O        4.90722542      12.40616891       4.10893292
C        8.43978400       5.03811688       6.72286084
C        8.53567566       3.64597069       6.52741897
C        6.97152932       3.81264849       4.67780934
C        7.81474814       3.03756950       5.52175522
C        6.22762668       3.18506293       3.64015853
C        5.41047470       3.93666342       2.82245511
C        5.30933565       5.32924225       3.01178371
C        7.91873019       1.57167635       5.31954106
C        6.33113274       1.71919606       3.43732285
N        7.17088149       0.99658912       4.28882367
O        8.63767388       0.84023029       6.02335163
O        5.70692116       1.11260409       2.54868953
H        4.50775432       7.77537256       2.59240872
H        4.35544900      10.20468451       2.95165848
H        8.90285970       7.36673948       7.80112582
H        8.71129360       9.79998377       8.11371902
H        6.30458809      13.23772309       5.97967311
H        9.03687507       5.47097634       7.53990543
H        9.18923108       3.04145540       7.18072670
H        4.83435062       3.44658919       2.01791441
H        4.64271889       5.87987577       2.33074943
H        7.24084423       0.00864159       4.15237541
