80
Dimer: struct; Energy: -4906.06228 eV
C       -1.29972200       1.48833600      -0.03228100
C       -0.45010500       2.63965400       0.01843500
C        0.99654200       2.45238200       0.05441800
C       -0.76903400       0.15867800      -0.04877100
C        0.67752200      -0.02870400      -0.01297900
C        1.52709100       1.12265000       0.03785500
C        2.93347700       0.94084900       0.07277000
C        3.48023700      -0.37253000       0.05696900
C        3.79427800       2.07240500       0.12351100
C        5.26507800       1.88272800       0.16006300
C        1.24802600      -1.29258500      -0.02698300
C        2.64560500      -1.46904700       0.00777700
C        1.86805800       3.52983300       0.10418700
C        3.26457400       3.34539700       0.13880400
C        4.95087500      -0.56291500       0.09346700
N        5.75909100       0.57580800       0.14293500
O        6.06925500       2.83065500       0.20492200
O        5.48910000      -1.68427500       0.08194900
C       -1.02041300       3.90352800       0.03216900
C       -2.41794600       4.08003500      -0.00262400
C       -2.70602800       1.67000700      -0.06716000
C       -3.25245200       2.98347100      -0.05156500
C       -3.56691500       0.53850500      -0.11766500
C       -3.03687800      -0.73433100      -0.13279200
C       -1.64041100      -0.91883000      -0.09829200
C       -4.72314700       3.17392200      -0.08803700
C       -5.03773600       0.72818300      -0.15412500
N       -5.53143900       2.03522700      -0.13722100
O       -5.26133100       4.29529300      -0.07673500
O       -5.84203300      -0.21964700      -0.19870900
H        0.62972700      -2.20233100      -0.06573200
H        3.07286500      -2.48716200      -0.00439800
H        1.49989900       4.56697900       0.11841200
H        3.93550500       4.22152900       0.17822500
H        6.75033500       0.44779700       0.16755800
H       -0.40199700       4.81321100       0.07071000
H       -2.84532000       5.09816700       0.00933800
H       -3.70773700      -1.61056600      -0.17200800
H       -1.27202900      -1.95588300      -0.11238600
H       -6.52266300       2.16338500      -0.16179200
C        1.85970264       1.41421653       7.87095471
C        1.78798156       1.62729096       6.45694988
C        2.14990899       2.93384605       5.91743580
C        2.27678483       2.44759243       8.76988117
C        2.63889304       3.75406038       8.23049588
C        2.56704098       3.96711564       6.81649010
C        2.91890619       5.23717186       6.29176128
C        3.33600526       6.27695097       7.16871528
C        2.85394386       5.46845071       4.88952664
C        3.22179745       6.79648740       4.34037427
C        3.05010871       4.79217367       9.05286353
C        3.39885679       6.05241975       8.52776472
C        2.09951126       3.19796797       4.55706180
C        2.44975183       4.46084173       4.03941971
C        3.70401376       7.60515135       6.62025547
N        3.62578931       7.78878774       5.23732059
O        3.18570345       7.06054232       3.12536365
O        4.07593135       8.55333227       7.33432641
C        1.37707160       0.58926001       5.63447674
C        1.02835703      -0.67097803       6.15951197
C        1.50784954       0.14429673       8.39575997
C        1.09101150      -0.89530377       7.51855593
C        1.57255603      -0.08700403       9.79800352
C        1.97664151       0.92086634      10.64782218
C        2.32699359       2.18369041      10.13025189
C        0.72295085      -2.22357320       8.06698756
C        1.20460988      -1.41502982      10.34717073
N        0.80088175      -2.40719641       9.44995199
O        0.35124580      -3.17179264       7.35287418
O        1.24039396      -1.67914207      11.56217169
H        3.11865221       4.66865271      10.14441165
H        3.72296281       6.86132969       9.20590740
H        1.78422105       2.43069630       3.83366599
H        2.40042461       4.64367244       2.95155508
H        3.87375066       8.68389277       4.86737474
H        1.30876691       0.71284167       4.54291412
H        0.70442113      -1.48005804       5.48139733
H        2.02581326       0.73820644      11.73575369
H        2.64219598       2.95114850      10.85346583
H        0.55284622      -3.30233401       9.81976312
