80
Dimer: struct; Energy: -4906.06228 eV
C       -1.29972200       1.48833600      -0.03228100
C       -0.45010500       2.63965400       0.01843500
C        0.99654200       2.45238200       0.05441800
C       -0.76903400       0.15867800      -0.04877100
C        0.67752200      -0.02870400      -0.01297900
C        1.52709100       1.12265000       0.03785500
C        2.93347700       0.94084900       0.07277000
C        3.48023700      -0.37253000       0.05696900
C        3.79427800       2.07240500       0.12351100
C        5.26507800       1.88272800       0.16006300
C        1.24802600      -1.29258500      -0.02698300
C        2.64560500      -1.46904700       0.00777700
C        1.86805800       3.52983300       0.10418700
C        3.26457400       3.34539700       0.13880400
C        4.95087500      -0.56291500       0.09346700
N        5.75909100       0.57580800       0.14293500
O        6.06925500       2.83065500       0.20492200
O        5.48910000      -1.68427500       0.08194900
C       -1.02041300       3.90352800       0.03216900
C       -2.41794600       4.08003500      -0.00262400
C       -2.70602800       1.67000700      -0.06716000
C       -3.25245200       2.98347100      -0.05156500
C       -3.56691500       0.53850500      -0.11766500
C       -3.03687800      -0.73433100      -0.13279200
C       -1.64041100      -0.91883000      -0.09829200
C       -4.72314700       3.17392200      -0.08803700
C       -5.03773600       0.72818300      -0.15412500
N       -5.53143900       2.03522700      -0.13722100
O       -5.26133100       4.29529300      -0.07673500
O       -5.84203300      -0.21964700      -0.19870900
H        0.62972700      -2.20233100      -0.06573200
H        3.07286500      -2.48716200      -0.00439800
H        1.49989900       4.56697900       0.11841200
H        3.93550500       4.22152900       0.17822500
H        6.75033500       0.44779700       0.16755800
H       -0.40199700       4.81321100       0.07071000
H       -2.84532000       5.09816700       0.00933800
H       -3.70773700      -1.61056600      -0.17200800
H       -1.27202900      -1.95588300      -0.11238600
H       -6.52266300       2.16338500      -0.16179200
C       10.55941411       7.13834601       0.98858149
C       11.20407525       8.40751221       0.83501242
C       12.60564187       8.44669646       0.43099669
C       11.25196175       5.90690652       0.75657585
C       12.65340158       5.94596747       0.35240016
C       13.29804761       7.21516213       0.19895949
C       14.66054935       7.25351166      -0.19386435
C       15.36602770       6.04064616      -0.42927490
C       15.31869052       8.50488705      -0.35160411
C       16.74354073       8.54543837      -0.76236378
C       13.37443688       4.78568530       0.11382211
C       14.72780155       4.82794467      -0.27629630
C       13.28162335       9.64627736       0.26676375
C       14.63512812       9.68049396      -0.12352585
C       16.79081424       6.08047279      -0.84006906
N       17.39796613       7.33077934      -0.98307384
O       17.37384559       9.60661457      -0.91695822
O       17.46101360       5.05599717      -1.06040875
C       10.48314450       9.56781710       1.07327437
C        9.12980657       9.52560922       1.46334961
C        9.19701788       7.09988054       1.38141016
C        8.49178154       8.31288151       1.61652808
C        8.53885859       5.84854581       1.53940296
C        9.22276143       4.67314506       1.31139088
C       10.57619423       4.70729151       0.92100149
C        7.06693932       8.27311132       2.02736688
C        7.11401609       5.80799247       1.95025666
N        6.45979702       7.02282143       2.17066636
O        6.39671203       9.29760357       2.24748885
O        6.48366642       4.74689426       2.10515333
H       12.91541801       3.79103966       0.22066145
H       15.27792238       3.88827623      -0.45972962
H       12.78497245      10.61390779       0.43541857
H       15.14892873      10.65008643      -0.24685096
H       18.35826546       7.35793258      -1.25992337
H       10.94222045      10.56241806       0.96619909
H        8.57951180      10.46527622       1.64661442
H        8.70910557       3.70346254       1.43488558
H       11.07308078       3.73978785       0.75240940
H        5.49951031       6.99581665       2.44756601
