80
Dimer: struct; Energy: -4906.06228 eV
C       -1.29972200       1.48833600      -0.03228100
C       -0.45010500       2.63965400       0.01843500
C        0.99654200       2.45238200       0.05441800
C       -0.76903400       0.15867800      -0.04877100
C        0.67752200      -0.02870400      -0.01297900
C        1.52709100       1.12265000       0.03785500
C        2.93347700       0.94084900       0.07277000
C        3.48023700      -0.37253000       0.05696900
C        3.79427800       2.07240500       0.12351100
C        5.26507800       1.88272800       0.16006300
C        1.24802600      -1.29258500      -0.02698300
C        2.64560500      -1.46904700       0.00777700
C        1.86805800       3.52983300       0.10418700
C        3.26457400       3.34539700       0.13880400
C        4.95087500      -0.56291500       0.09346700
N        5.75909100       0.57580800       0.14293500
O        6.06925500       2.83065500       0.20492200
O        5.48910000      -1.68427500       0.08194900
C       -1.02041300       3.90352800       0.03216900
C       -2.41794600       4.08003500      -0.00262400
C       -2.70602800       1.67000700      -0.06716000
C       -3.25245200       2.98347100      -0.05156500
C       -3.56691500       0.53850500      -0.11766500
C       -3.03687800      -0.73433100      -0.13279200
C       -1.64041100      -0.91883000      -0.09829200
C       -4.72314700       3.17392200      -0.08803700
C       -5.03773600       0.72818300      -0.15412500
N       -5.53143900       2.03522700      -0.13722100
O       -5.26133100       4.29529300      -0.07673500
O       -5.84203300      -0.21964700      -0.19870900
H        0.62972700      -2.20233100      -0.06573200
H        3.07286500      -2.48716200      -0.00439800
H        1.49989900       4.56697900       0.11841200
H        3.93550500       4.22152900       0.17822500
H        6.75033500       0.44779700       0.16755800
H       -0.40199700       4.81321100       0.07071000
H       -2.84532000       5.09816700       0.00933800
H       -3.70773700      -1.61056600      -0.17200800
H       -1.27202900      -1.95588300      -0.11238600
H       -6.52266300       2.16338500      -0.16179200
C        6.69479435       4.03829529      10.09593532
C        7.52495081       3.48526662       9.06882587
C        7.17846634       3.72411177       7.67166638
C        5.53438694       4.81912338       9.78990554
C        5.18792515       5.05817656       8.39286040
C        6.01805334       4.50502407       7.36578827
C        5.68146342       4.73714061       6.00747263
C        4.53232901       5.51064923       5.68291896
C        6.49383706       4.19587712       4.97255481
C        6.14218552       4.43835421       3.55195208
C        4.07620119       5.80673055       8.03676652
C        3.74518031       6.03511392       6.68627018
C        7.94507203       3.21359663       6.63503349
C        7.60761831       3.44620133       5.28688960
C        4.18013668       5.75352787       4.26259322
N        5.00538532       5.20336245       3.27840170
O        6.81162584       3.99270236       2.60299336
O        3.18949252       6.42067254       3.91501703
C        8.63679202       2.73696610       9.42473707
C        8.96786278       2.50859200      10.77518188
C        7.03124711       3.80622681      11.45419201
C        8.18052410       3.03288559      11.77840774
C        6.21880075       4.34725337      12.48917757
C        5.10502001       5.09674617      12.17448321
C        4.76758303       5.32947676      10.82640199
C        8.53276401       2.78994344      13.19877802
C        6.57040577       4.10469602      13.90979762
N        7.70739382       3.33984659      14.18302997
O        9.52352948       2.12297917      13.54631955
O        5.90091140       4.55005142      14.85884924
H        3.41323590       6.24883549       8.79601166
H        2.85394130       6.63506750       6.43130698
H        8.84404657       2.60877307       6.82854953
H        8.23601906       3.02752480       4.48120221
H        4.76824775       5.36688354       2.32101756
H        9.29980370       2.29508298       8.66539411
H        9.85924480       1.90879492      11.03026217
H        4.47641397       5.51531356      12.98010921
H        3.86858854       5.93416719      10.63264634
H        7.94462319       3.17620626      15.14036862
