80
Dimer: struct; Energy: -4906.06228 eV
C       -1.29972200       1.48833600      -0.03228100
C       -0.45010500       2.63965400       0.01843500
C        0.99654200       2.45238200       0.05441800
C       -0.76903400       0.15867800      -0.04877100
C        0.67752200      -0.02870400      -0.01297900
C        1.52709100       1.12265000       0.03785500
C        2.93347700       0.94084900       0.07277000
C        3.48023700      -0.37253000       0.05696900
C        3.79427800       2.07240500       0.12351100
C        5.26507800       1.88272800       0.16006300
C        1.24802600      -1.29258500      -0.02698300
C        2.64560500      -1.46904700       0.00777700
C        1.86805800       3.52983300       0.10418700
C        3.26457400       3.34539700       0.13880400
C        4.95087500      -0.56291500       0.09346700
N        5.75909100       0.57580800       0.14293500
O        6.06925500       2.83065500       0.20492200
O        5.48910000      -1.68427500       0.08194900
C       -1.02041300       3.90352800       0.03216900
C       -2.41794600       4.08003500      -0.00262400
C       -2.70602800       1.67000700      -0.06716000
C       -3.25245200       2.98347100      -0.05156500
C       -3.56691500       0.53850500      -0.11766500
C       -3.03687800      -0.73433100      -0.13279200
C       -1.64041100      -0.91883000      -0.09829200
C       -4.72314700       3.17392200      -0.08803700
C       -5.03773600       0.72818300      -0.15412500
N       -5.53143900       2.03522700      -0.13722100
O       -5.26133100       4.29529300      -0.07673500
O       -5.84203300      -0.21964700      -0.19870900
H        0.62972700      -2.20233100      -0.06573200
H        3.07286500      -2.48716200      -0.00439800
H        1.49989900       4.56697900       0.11841200
H        3.93550500       4.22152900       0.17822500
H        6.75033500       0.44779700       0.16755800
H       -0.40199700       4.81321100       0.07071000
H       -2.84532000       5.09816700       0.00933800
H       -3.70773700      -1.61056600      -0.17200800
H       -1.27202900      -1.95588300      -0.11238600
H       -6.52266300       2.16338500      -0.16179200
C        0.99261940       7.04283256       4.78492263
C        0.62346020       5.82705453       4.12495326
C        1.36447325       4.60566694       4.42204772
C        2.06851706       7.09307897       5.72822088
C        2.80944296       5.87178410       6.02551700
C        2.44031553       4.65605537       5.36542895
C        3.16049434       3.46854468       5.65413831
C        4.23282639       3.49794163       6.58869723
C        2.80885536       2.25059233       5.00844946
C        3.56174908       1.00851900       5.31006334
C        3.86039444       5.86035374       6.93019178
C        4.57336243       4.67861336       7.21434043
C        1.05194071       3.39950135       3.81343805
C        1.76958400       2.22187686       4.10267946
C        4.98608110       2.25628745       6.89078483
N        4.60729407       1.08259445       6.23403877
O        3.30288730      -0.08616005       4.77907657
O        5.93230286       2.21744582       7.69727274
C       -0.42757767       5.83826440       3.22051361
C       -1.14057707       7.01993968       2.93636727
C        0.27258128       8.23032938       4.49628117
C       -0.79979883       8.20056027       3.56186971
C        0.62429967       9.44837852       5.14174567
C        1.66371195       9.47676070       6.04733723
C        2.38130177       8.29918519       6.33670030
C       -1.55310356       9.44224393       3.25971204
C       -0.12854485      10.69048632       4.84005900
N       -1.17418551      10.61604342       3.91621580
O       -2.49945297       9.48100680       2.45338525
O        0.13037907      11.78528236       5.37075961
H        4.17479134       6.77350470       7.45815280
H        5.40607590       4.69833668       7.93922440
H        0.23245581       3.31932737       3.08307386
H        1.49923253       1.27487921       3.60326456
H        5.11481526       0.24556981       6.43743439
H       -0.74201753       4.92499720       2.69276604
H       -1.97348403       7.00027527       2.21161649
H        1.93429066      10.42377020       6.54667443
H        3.20090114       8.37914399       7.06693747
H       -1.68176133      11.45300038       3.71268923
