80
Dimer: struct; Energy: -4906.06228 eV
C       -1.29972200       1.48833600      -0.03228100
C       -0.45010500       2.63965400       0.01843500
C        0.99654200       2.45238200       0.05441800
C       -0.76903400       0.15867800      -0.04877100
C        0.67752200      -0.02870400      -0.01297900
C        1.52709100       1.12265000       0.03785500
C        2.93347700       0.94084900       0.07277000
C        3.48023700      -0.37253000       0.05696900
C        3.79427800       2.07240500       0.12351100
C        5.26507800       1.88272800       0.16006300
C        1.24802600      -1.29258500      -0.02698300
C        2.64560500      -1.46904700       0.00777700
C        1.86805800       3.52983300       0.10418700
C        3.26457400       3.34539700       0.13880400
C        4.95087500      -0.56291500       0.09346700
N        5.75909100       0.57580800       0.14293500
O        6.06925500       2.83065500       0.20492200
O        5.48910000      -1.68427500       0.08194900
C       -1.02041300       3.90352800       0.03216900
C       -2.41794600       4.08003500      -0.00262400
C       -2.70602800       1.67000700      -0.06716000
C       -3.25245200       2.98347100      -0.05156500
C       -3.56691500       0.53850500      -0.11766500
C       -3.03687800      -0.73433100      -0.13279200
C       -1.64041100      -0.91883000      -0.09829200
C       -4.72314700       3.17392200      -0.08803700
C       -5.03773600       0.72818300      -0.15412500
N       -5.53143900       2.03522700      -0.13722100
O       -5.26133100       4.29529300      -0.07673500
O       -5.84203300      -0.21964700      -0.19870900
H        0.62972700      -2.20233100      -0.06573200
H        3.07286500      -2.48716200      -0.00439800
H        1.49989900       4.56697900       0.11841200
H        3.93550500       4.22152900       0.17822500
H        6.75033500       0.44779700       0.16755800
H       -0.40199700       4.81321100       0.07071000
H       -2.84532000       5.09816700       0.00933800
H       -3.70773700      -1.61056600      -0.17200800
H       -1.27202900      -1.95588300      -0.11238600
H       -6.52266300       2.16338500      -0.16179200
C        7.76821659       5.47239297       4.07172301
C        6.41092751       5.75433022       3.71362798
C        5.46043105       6.11092728       4.76174445
C        8.21841100       5.53082922       5.42958982
C        7.26810111       5.88757463       6.47771251
C        5.91079306       6.16938843       6.11957364
C        4.98660469       6.51614557       7.13831187
C        5.41464584       6.57973420       8.49363391
C        3.63352267       6.79961817       6.80247808
C        2.66671267       7.16225697       7.86753093
C        7.64724348       5.96006376       7.80965188
C        6.72619071       6.30492429       8.81876395
C        4.13370735       6.39401252       4.47436884
C        3.21847220       6.73807423       5.48898111
C        4.44841288       6.94232261       9.55912825
N        3.12964601       7.21282836       9.18492129
O        1.47180973       7.42078926       7.63808251
O        4.76110907       7.01476555      10.76089369
C        6.03171825       5.68215380       2.38178406
C        6.95271796       5.33734133       1.37266184
C        8.69241836       5.12561345       3.05313943
C        8.26413309       5.06232295       1.69793608
C       10.04546639       4.84189531       3.38890570
C       10.46013107       4.90338639       4.70250822
C        9.54500252       5.24754123       5.71712510
C        9.23035941       4.69969895       0.63235825
C       11.01226656       4.47916269       2.32384984
N       10.54908847       4.42890247       1.00652969
O        8.91768401       4.62747500      -0.56941563
O       12.20712301       4.22034146       2.55318088
H        8.68057864       5.75090281       8.12572635
H        7.05548224       6.35510622       9.87152524
H        3.74869323       6.35997661       3.44382485
H        2.16753707       6.95867641       5.23172688
H        2.47818039       7.45722481       9.90284935
H        4.99839256       5.89154149       2.06580664
H        6.62355605       5.28733250       0.31979150
H       11.51102338       4.68260010       4.95991109
H        9.92976018       5.28152184       6.74775099
H       11.20043336       4.18447364       0.28850629
