80
Dimer: struct; Energy: -4906.06228 eV
C       -1.29972200       1.48833600      -0.03228100
C       -0.45010500       2.63965400       0.01843500
C        0.99654200       2.45238200       0.05441800
C       -0.76903400       0.15867800      -0.04877100
C        0.67752200      -0.02870400      -0.01297900
C        1.52709100       1.12265000       0.03785500
C        2.93347700       0.94084900       0.07277000
C        3.48023700      -0.37253000       0.05696900
C        3.79427800       2.07240500       0.12351100
C        5.26507800       1.88272800       0.16006300
C        1.24802600      -1.29258500      -0.02698300
C        2.64560500      -1.46904700       0.00777700
C        1.86805800       3.52983300       0.10418700
C        3.26457400       3.34539700       0.13880400
C        4.95087500      -0.56291500       0.09346700
N        5.75909100       0.57580800       0.14293500
O        6.06925500       2.83065500       0.20492200
O        5.48910000      -1.68427500       0.08194900
C       -1.02041300       3.90352800       0.03216900
C       -2.41794600       4.08003500      -0.00262400
C       -2.70602800       1.67000700      -0.06716000
C       -3.25245200       2.98347100      -0.05156500
C       -3.56691500       0.53850500      -0.11766500
C       -3.03687800      -0.73433100      -0.13279200
C       -1.64041100      -0.91883000      -0.09829200
C       -4.72314700       3.17392200      -0.08803700
C       -5.03773600       0.72818300      -0.15412500
N       -5.53143900       2.03522700      -0.13722100
O       -5.26133100       4.29529300      -0.07673500
O       -5.84203300      -0.21964700      -0.19870900
H        0.62972700      -2.20233100      -0.06573200
H        3.07286500      -2.48716200      -0.00439800
H        1.49989900       4.56697900       0.11841200
H        3.93550500       4.22152900       0.17822500
H        6.75033500       0.44779700       0.16755800
H       -0.40199700       4.81321100       0.07071000
H       -2.84532000       5.09816700       0.00933800
H       -3.70773700      -1.61056600      -0.17200800
H       -1.27202900      -1.95588300      -0.11238600
H       -6.52266300       2.16338500      -0.16179200
C        2.87532513       7.34016749       7.47386959
C        3.39428340       6.25467679       8.24997947
C        3.79939667       5.02796656       7.57158550
C        2.74308320       7.25514987       6.05078275
C        3.14831306       6.02862570       5.37229578
C        3.66715667       4.94312013       6.14847011
C        4.06111927       3.75050373       5.48918881
C        3.93759754       3.64660001       4.07564470
C        4.57896828       2.66075992       6.24302090
C        4.99105038       1.41337915       5.55396676
C        3.04317841       5.88938322       3.99656894
C        3.43564165       4.70303328       3.34532354
C        4.30850188       3.94439506       8.27130147
C        4.69879299       2.76126494       7.61300981
C        4.34950177       2.39958061       3.38598376
N        4.85268109       1.35431257       4.16481335
O        5.45048963       0.42691543       6.15653085
O        4.26611217       2.24765353       2.15422428
C        3.49972764       6.39385683       9.62559851
C        3.10732080       7.58016702      10.27686556
C        2.48132475       8.53273609       8.13300637
C        2.60516708       8.63640384       9.54648653
C        1.96324535       9.62244646       7.37928295
C        1.84341894       9.52154080       6.00934163
C        2.23378479       8.33851753       5.35099470
C        2.19323624       9.88344428      10.23623191
C        1.55107272      10.86980886       8.06835644
N        1.68977983      10.92865841       9.45748907
O        2.27683886      10.03541801      11.46796128
O        1.09136672      11.85624136       7.46595756
H        2.64963604       6.70020348       3.36480330
H        3.34096477       4.61947017       2.24836821
H        4.42571596       3.97013842       9.36538252
H        5.10111046       1.91357439       8.19513616
H        5.13036998       0.51369611       3.70025912
H        3.89348309       5.58303433      10.25723959
H        3.20215762       7.66390945      11.37385124
H        1.44091378      10.36911602       5.42711890
H        2.11654871       8.31250122       4.25693725
H        1.41208618      11.76919559       9.92217897
