80
Dimer: struct; Energy: -4906.06228 eV
C       -1.29972200       1.48833600      -0.03228100
C       -0.45010500       2.63965400       0.01843500
C        0.99654200       2.45238200       0.05441800
C       -0.76903400       0.15867800      -0.04877100
C        0.67752200      -0.02870400      -0.01297900
C        1.52709100       1.12265000       0.03785500
C        2.93347700       0.94084900       0.07277000
C        3.48023700      -0.37253000       0.05696900
C        3.79427800       2.07240500       0.12351100
C        5.26507800       1.88272800       0.16006300
C        1.24802600      -1.29258500      -0.02698300
C        2.64560500      -1.46904700       0.00777700
C        1.86805800       3.52983300       0.10418700
C        3.26457400       3.34539700       0.13880400
C        4.95087500      -0.56291500       0.09346700
N        5.75909100       0.57580800       0.14293500
O        6.06925500       2.83065500       0.20492200
O        5.48910000      -1.68427500       0.08194900
C       -1.02041300       3.90352800       0.03216900
C       -2.41794600       4.08003500      -0.00262400
C       -2.70602800       1.67000700      -0.06716000
C       -3.25245200       2.98347100      -0.05156500
C       -3.56691500       0.53850500      -0.11766500
C       -3.03687800      -0.73433100      -0.13279200
C       -1.64041100      -0.91883000      -0.09829200
C       -4.72314700       3.17392200      -0.08803700
C       -5.03773600       0.72818300      -0.15412500
N       -5.53143900       2.03522700      -0.13722100
O       -5.26133100       4.29529300      -0.07673500
O       -5.84203300      -0.21964700      -0.19870900
H        0.62972700      -2.20233100      -0.06573200
H        3.07286500      -2.48716200      -0.00439800
H        1.49989900       4.56697900       0.11841200
H        3.93550500       4.22152900       0.17822500
H        6.75033500       0.44779700       0.16755800
H       -0.40199700       4.81321100       0.07071000
H       -2.84532000       5.09816700       0.00933800
H       -3.70773700      -1.61056600      -0.17200800
H       -1.27202900      -1.95588300      -0.11238600
H       -6.52266300       2.16338500      -0.16179200
C        2.63391606      14.22648938       0.45333669
C        2.65215325      13.18761579      -0.53173353
C        2.65131636      11.79554986      -0.09434939
C        2.61477059      13.93707886       1.85539485
C        2.61374613      12.54512701       2.29287210
C        2.63210224      11.50629110       1.30775758
C        2.63121986      10.15292370       1.73271421
C        2.61219639       9.84483004       3.12155437
C        2.64935494       9.10649666       0.76905787
C        2.64846611       7.69106373       1.21303411
C        2.59546292      12.20496154       3.63712627
C        2.59461357      10.85933306       4.05528583
C        2.66866039      10.74806220      -1.00285724
C        2.66776488       9.40487785      -0.57703224
C        2.61126397       8.42968183       3.56619954
N        2.62946133       7.43379193       2.58629014
O        2.66380372       6.73263043       0.42028639
O        2.59509776       8.09630229       4.76447488
C        2.67016143      13.52759704      -1.87594549
C        2.67097618      14.87317329      -2.29414118
C        2.63483342      15.57979978       0.02852191
C        2.65364132      15.88755357      -1.36034235
C        2.61693607      16.62629550       0.99210914
C        2.59868188      16.32755470       2.33810329
C        2.59767126      14.98443283       2.76398220
C        2.65460068      17.30274563      -1.80506257
C        2.61791741      18.04174637       0.54812789
N        2.63668899      18.29869758      -0.82519513
O        2.67054979      17.63608887      -3.00334075
O        2.60285705      19.00027322       1.34075806
H        2.58096871      12.97360775       4.42478473
H        2.57984974      10.61713616       5.13249527
H        2.68374039      10.92870754      -2.08847001
H        2.68182216       8.59028818      -1.32238837
H        2.62885266       6.47989400       2.88568312
H        2.68444516      12.75885244      -2.66352065
H        2.68552997      15.11548531      -3.37138649
H        2.58482850      17.14208585       3.08357264
H        2.58271549      14.80354812       3.84954192
H        2.63734784      19.25254869      -1.12472953
