80
Dimer: struct; Energy: -4906.06228 eV
C       -1.29972200       1.48833600      -0.03228100
C       -0.45010500       2.63965400       0.01843500
C        0.99654200       2.45238200       0.05441800
C       -0.76903400       0.15867800      -0.04877100
C        0.67752200      -0.02870400      -0.01297900
C        1.52709100       1.12265000       0.03785500
C        2.93347700       0.94084900       0.07277000
C        3.48023700      -0.37253000       0.05696900
C        3.79427800       2.07240500       0.12351100
C        5.26507800       1.88272800       0.16006300
C        1.24802600      -1.29258500      -0.02698300
C        2.64560500      -1.46904700       0.00777700
C        1.86805800       3.52983300       0.10418700
C        3.26457400       3.34539700       0.13880400
C        4.95087500      -0.56291500       0.09346700
N        5.75909100       0.57580800       0.14293500
O        6.06925500       2.83065500       0.20492200
O        5.48910000      -1.68427500       0.08194900
C       -1.02041300       3.90352800       0.03216900
C       -2.41794600       4.08003500      -0.00262400
C       -2.70602800       1.67000700      -0.06716000
C       -3.25245200       2.98347100      -0.05156500
C       -3.56691500       0.53850500      -0.11766500
C       -3.03687800      -0.73433100      -0.13279200
C       -1.64041100      -0.91883000      -0.09829200
C       -4.72314700       3.17392200      -0.08803700
C       -5.03773600       0.72818300      -0.15412500
N       -5.53143900       2.03522700      -0.13722100
O       -5.26133100       4.29529300      -0.07673500
O       -5.84203300      -0.21964700      -0.19870900
H        0.62972700      -2.20233100      -0.06573200
H        3.07286500      -2.48716200      -0.00439800
H        1.49989900       4.56697900       0.11841200
H        3.93550500       4.22152900       0.17822500
H        6.75033500       0.44779700       0.16755800
H       -0.40199700       4.81321100       0.07071000
H       -2.84532000       5.09816700       0.00933800
H       -3.70773700      -1.61056600      -0.17200800
H       -1.27202900      -1.95588300      -0.11238600
H       -6.52266300       2.16338500      -0.16179200
C        6.65162939       0.71722348       7.24354815
C        6.71796325       0.35628100       8.62748263
C        6.78465137       1.41145307       9.63312556
C        6.64881791       2.08468308       6.81935669
C        6.71531337       3.13988620       7.82486257
C        6.78176413       2.77888381       9.20878063
C        6.84652923       3.80448946      10.18660002
C        6.84471275       5.16939961       9.78513080
C        6.91316050       3.46594094      11.56678739
C        6.98092889       4.53816964      12.58967502
C        6.71569719       4.48124162       7.47296544
C        6.78011233       5.49715943       8.44730411
C        6.85063902       1.12170748      10.98760364
C        6.91490411       2.14315553      11.95610031
C        6.91242511       6.24207740      10.80744781
N        6.97666656       5.86489375      12.15130636
O        7.04084199       4.30678810      13.81039267
O        6.91434488       7.45232881      10.52012410
C        6.71731361      -0.98494171       8.97953173
C        6.65286636      -2.00086506       8.00525761
C        6.58690221      -0.30823134       6.26570856
C        6.58851963      -1.67299313       6.66749546
C        6.52050498       0.03021763       4.88548479
C        6.51893402       1.35308888       4.49652628
C        6.58308123       2.37455678       5.46494699
C        6.52083194      -2.74575846       5.64517530
C        6.45282812      -1.04202641       3.86258008
N        6.45687277      -2.36864855       4.30127103
O        6.51869705      -3.95598944       5.93254105
O        6.39318726      -0.81079979       2.64182608
H        6.66572017       4.79980724       6.42061038
H        6.77884967       6.55737040       8.13874521
H        6.85515501       0.08386024      11.35402953
H        6.96672157       1.88381652      13.02818609
H        7.02232816       6.58765988      12.84056822
H        6.76708526      -1.30338170      10.03194119
H        6.65391365      -3.06115784       8.31374185
H        6.46732322       1.61255023       3.42442852
H        6.57870071       3.41247013       5.09875092
H        6.41126330      -3.09151710       3.61211644
