80
Dimer: struct; Energy: -4906.06228 eV
C       -1.29972200       1.48833600      -0.03228100
C       -0.45010500       2.63965400       0.01843500
C        0.99654200       2.45238200       0.05441800
C       -0.76903400       0.15867800      -0.04877100
C        0.67752200      -0.02870400      -0.01297900
C        1.52709100       1.12265000       0.03785500
C        2.93347700       0.94084900       0.07277000
C        3.48023700      -0.37253000       0.05696900
C        3.79427800       2.07240500       0.12351100
C        5.26507800       1.88272800       0.16006300
C        1.24802600      -1.29258500      -0.02698300
C        2.64560500      -1.46904700       0.00777700
C        1.86805800       3.52983300       0.10418700
C        3.26457400       3.34539700       0.13880400
C        4.95087500      -0.56291500       0.09346700
N        5.75909100       0.57580800       0.14293500
O        6.06925500       2.83065500       0.20492200
O        5.48910000      -1.68427500       0.08194900
C       -1.02041300       3.90352800       0.03216900
C       -2.41794600       4.08003500      -0.00262400
C       -2.70602800       1.67000700      -0.06716000
C       -3.25245200       2.98347100      -0.05156500
C       -3.56691500       0.53850500      -0.11766500
C       -3.03687800      -0.73433100      -0.13279200
C       -1.64041100      -0.91883000      -0.09829200
C       -4.72314700       3.17392200      -0.08803700
C       -5.03773600       0.72818300      -0.15412500
N       -5.53143900       2.03522700      -0.13722100
O       -5.26133100       4.29529300      -0.07673500
O       -5.84203300      -0.21964700      -0.19870900
H        0.62972700      -2.20233100      -0.06573200
H        3.07286500      -2.48716200      -0.00439800
H        1.49989900       4.56697900       0.11841200
H        3.93550500       4.22152900       0.17822500
H        6.75033500       0.44779700       0.16755800
H       -0.40199700       4.81321100       0.07071000
H       -2.84532000       5.09816700       0.00933800
H       -3.70773700      -1.61056600      -0.17200800
H       -1.27202900      -1.95588300      -0.11238600
H       -6.52266300       2.16338500      -0.16179200
C        1.94828200       2.98609296       4.22502187
C        0.64499023       3.56630290       4.34643558
C       -0.39513130       2.83091443       5.05812661
C        2.25899814       1.70454430       4.78267819
C        1.21906647       0.96918449       5.49451063
C       -0.08424384       1.54939165       5.61579329
C       -1.09553795       0.83470870       6.30767821
C       -0.80641257      -0.44021685       6.86904434
C       -2.39687141       1.39446153       6.43875063
C       -3.45473975       0.64739520       7.16219554
C        1.46226774      -0.27561461       6.05521951
C        0.45501131      -0.98243646       6.74181366
C       -1.67522711       3.34291898       5.20686738
C       -2.67728899       2.63009675       5.89478335
C       -1.86375406      -1.18777161       7.59260881
N       -3.12748526      -0.60101049       7.69770450
O       -4.61053053       1.08269915       7.31030594
O       -1.67330519      -2.30517128       8.10487267
C        0.40172323       4.81113577       3.78605212
C        1.40892956       5.51799035       3.09949858
C        2.95957286       3.70062337       3.53317324
C        2.67020270       4.97557492       2.97212642
C        4.26087117       3.14084645       3.40184746
C        4.54089261       1.90513575       3.94580204
C        3.53893939       1.19233199       4.63380696
C        3.72754492       5.72319447       2.24849805
C        5.31872688       3.88788218       2.67831417
N        4.99123237       5.13636351       2.14311877
O        3.53712496       6.84068009       1.73643478
O        6.47447371       3.45258560       2.52989161
H        2.45023601      -0.75547351       5.98389591
H        0.67644362      -1.97211614       7.17857374
H       -1.95378582       4.32398520       4.79294789
H       -3.68838341       3.06169879       5.99830847
H       -3.84033433      -1.10463514       8.18531725
H       -0.58623791       5.29098721       3.85762234
H        1.18764310       6.50782039       2.66286005
H        5.55192307       1.47333340       3.84216028
H        3.81723289       0.21119736       5.04770359
H        5.70397007       5.64007734       1.65544001
