80
Dimer: struct; Energy: -4906.06228 eV
C       -1.29972200       1.48833600      -0.03228100
C       -0.45010500       2.63965400       0.01843500
C        0.99654200       2.45238200       0.05441800
C       -0.76903400       0.15867800      -0.04877100
C        0.67752200      -0.02870400      -0.01297900
C        1.52709100       1.12265000       0.03785500
C        2.93347700       0.94084900       0.07277000
C        3.48023700      -0.37253000       0.05696900
C        3.79427800       2.07240500       0.12351100
C        5.26507800       1.88272800       0.16006300
C        1.24802600      -1.29258500      -0.02698300
C        2.64560500      -1.46904700       0.00777700
C        1.86805800       3.52983300       0.10418700
C        3.26457400       3.34539700       0.13880400
C        4.95087500      -0.56291500       0.09346700
N        5.75909100       0.57580800       0.14293500
O        6.06925500       2.83065500       0.20492200
O        5.48910000      -1.68427500       0.08194900
C       -1.02041300       3.90352800       0.03216900
C       -2.41794600       4.08003500      -0.00262400
C       -2.70602800       1.67000700      -0.06716000
C       -3.25245200       2.98347100      -0.05156500
C       -3.56691500       0.53850500      -0.11766500
C       -3.03687800      -0.73433100      -0.13279200
C       -1.64041100      -0.91883000      -0.09829200
C       -4.72314700       3.17392200      -0.08803700
C       -5.03773600       0.72818300      -0.15412500
N       -5.53143900       2.03522700      -0.13722100
O       -5.26133100       4.29529300      -0.07673500
O       -5.84203300      -0.21964700      -0.19870900
H        0.62972700      -2.20233100      -0.06573200
H        3.07286500      -2.48716200      -0.00439800
H        1.49989900       4.56697900       0.11841200
H        3.93550500       4.22152900       0.17822500
H        6.75033500       0.44779700       0.16755800
H       -0.40199700       4.81321100       0.07071000
H       -2.84532000       5.09816700       0.00933800
H       -3.70773700      -1.61056600      -0.17200800
H       -1.27202900      -1.95588300      -0.11238600
H       -6.52266300       2.16338500      -0.16179200
C        5.73759487      10.40671968       2.69673337
C        5.51507825      11.78925731       2.39835386
C        5.57819838      12.76713628       3.47952069
C        6.02037908       9.95744644       4.02642458
C        6.08370286      10.93520169       5.10758234
C        5.86106164      12.31771587       4.80916479
C        5.92244312      13.26855214       5.86003821
C        6.20228888      12.84191961       7.18813143
C        5.70401049      14.64689919       5.58359906
C        5.76808376      15.64157125       6.68227470
C        6.35379106      10.55830884       6.41451396
C        6.41395791      11.50588545       7.45569246
C        5.37108509      14.11894540       3.25009981
C        5.43280262      15.06059936       4.29649872
C        6.26653740      13.83601786       8.28721991
N        6.04571028      15.17904768       7.97121905
O        5.58647638      16.85927774       6.50482543
O        6.50670177      13.52595008       9.46766310
C        5.24526522      12.16631789       1.09150897
C        5.18512459      11.21880803       0.05032122
C        5.67620534       9.45585768       1.64601444
C        5.39656129       9.88281819       0.31804080
C        5.89439250       8.07745977       1.92239736
C        6.16542360       7.66409924       3.20962490
C        6.22726539       8.60568537       4.25601936
C        5.33227264       8.88871676      -0.78112929
C        5.83022775       7.08276452       0.82372283
N        5.55281233       7.54562288      -0.46515080
O        5.09232022       9.19884123      -1.96159036
O        6.01154198       5.86500559       1.00106842
H        6.53067222       9.50613144       6.68482620
H        6.63097021      11.17776142       8.48743747
H        5.15120517      14.50412076       2.24277266
H        5.26374210      16.13118118       4.08535230
H        6.08893598      15.84929208       8.71180110
H        5.06860506      13.21856158       0.82128440
H        4.96831333      11.54687435      -0.98154590
H        6.33430481       6.59348856       3.42092890
H        6.44700954       8.22072839       5.26344355
H        5.50950959       6.87548377      -1.20582055
