80
Dimer: struct; Energy: -4906.06228 eV
C       -1.29972200       1.48833600      -0.03228100
C       -0.45010500       2.63965400       0.01843500
C        0.99654200       2.45238200       0.05441800
C       -0.76903400       0.15867800      -0.04877100
C        0.67752200      -0.02870400      -0.01297900
C        1.52709100       1.12265000       0.03785500
C        2.93347700       0.94084900       0.07277000
C        3.48023700      -0.37253000       0.05696900
C        3.79427800       2.07240500       0.12351100
C        5.26507800       1.88272800       0.16006300
C        1.24802600      -1.29258500      -0.02698300
C        2.64560500      -1.46904700       0.00777700
C        1.86805800       3.52983300       0.10418700
C        3.26457400       3.34539700       0.13880400
C        4.95087500      -0.56291500       0.09346700
N        5.75909100       0.57580800       0.14293500
O        6.06925500       2.83065500       0.20492200
O        5.48910000      -1.68427500       0.08194900
C       -1.02041300       3.90352800       0.03216900
C       -2.41794600       4.08003500      -0.00262400
C       -2.70602800       1.67000700      -0.06716000
C       -3.25245200       2.98347100      -0.05156500
C       -3.56691500       0.53850500      -0.11766500
C       -3.03687800      -0.73433100      -0.13279200
C       -1.64041100      -0.91883000      -0.09829200
C       -4.72314700       3.17392200      -0.08803700
C       -5.03773600       0.72818300      -0.15412500
N       -5.53143900       2.03522700      -0.13722100
O       -5.26133100       4.29529300      -0.07673500
O       -5.84203300      -0.21964700      -0.19870900
H        0.62972700      -2.20233100      -0.06573200
H        3.07286500      -2.48716200      -0.00439800
H        1.49989900       4.56697900       0.11841200
H        3.93550500       4.22152900       0.17822500
H        6.75033500       0.44779700       0.16755800
H       -0.40199700       4.81321100       0.07071000
H       -2.84532000       5.09816700       0.00933800
H       -3.70773700      -1.61056600      -0.17200800
H       -1.27202900      -1.95588300      -0.11238600
H       -6.52266300       2.16338500      -0.16179200
C        8.64086420      -0.66795795       1.16096582
C        8.64367109      -1.55818504       2.28232309
C        8.64490493      -1.00031833       3.63063179
C        8.63912029       0.75422215       1.32617114
C        8.64016808       1.31217396       2.67435734
C        8.64309340       0.42189794       3.79568140
C        8.64422072       0.96398973       5.10653130
C        8.64237953       2.37464238       5.29150777
C        8.64718317       0.09575647       6.23353362
C        8.64839013       0.66224111       7.60454045
C        8.63840731       2.68122221       2.89519641
C        8.63949965       3.21586397       4.19893379
C        8.64778744      -1.81351730       4.75384899
C        8.64893913      -1.27145426       6.05447893
C        8.64355230       2.94176887       6.66217215
N        8.64649701       2.05290967       7.74025884
O        8.65099431      -0.04344567       8.62888315
O        8.64203650       4.16479106       6.88906750
C        8.64515691      -2.92717158       2.06166280
C        8.64402938      -3.46184430       0.75798049
C        8.63977355      -1.20990388      -0.14983961
C        8.64139799      -2.62054798      -0.33447622
C        8.63704808      -0.34174851      -1.27690340
C        8.63544569       1.02539624      -1.09748150
C        8.63648314       1.56750894       0.20308105
C        8.64025130      -3.18775342      -1.70517759
C        8.63593361      -0.90824088      -2.64792733
N        8.63759185      -2.29894507      -2.78332135
O        8.64154988      -4.41077249      -1.93203733
O        8.63360537      -0.20268292      -3.67235187
H        8.63609111       3.39848861       2.06035723
H        8.63805437       4.31027556       4.34562626
H        8.64928135      -2.91090010       4.66920875
H        8.65124743      -1.94254657       6.93137087
H        8.64730315       2.43486371       8.66420052
H        8.64726347      -3.64434371       2.89659191
H        8.64526447      -4.55629907       0.61117572
H        8.63334258       1.69660389      -1.97432432
H        8.63511214       2.66485835       0.28796484
H        8.63683393      -2.68103650      -3.70720380
