80
Dimer: struct; Energy: -4906.06228 eV
C       -1.29972200       1.48833600      -0.03228100
C       -0.45010500       2.63965400       0.01843500
C        0.99654200       2.45238200       0.05441800
C       -0.76903400       0.15867800      -0.04877100
C        0.67752200      -0.02870400      -0.01297900
C        1.52709100       1.12265000       0.03785500
C        2.93347700       0.94084900       0.07277000
C        3.48023700      -0.37253000       0.05696900
C        3.79427800       2.07240500       0.12351100
C        5.26507800       1.88272800       0.16006300
C        1.24802600      -1.29258500      -0.02698300
C        2.64560500      -1.46904700       0.00777700
C        1.86805800       3.52983300       0.10418700
C        3.26457400       3.34539700       0.13880400
C        4.95087500      -0.56291500       0.09346700
N        5.75909100       0.57580800       0.14293500
O        6.06925500       2.83065500       0.20492200
O        5.48910000      -1.68427500       0.08194900
C       -1.02041300       3.90352800       0.03216900
C       -2.41794600       4.08003500      -0.00262400
C       -2.70602800       1.67000700      -0.06716000
C       -3.25245200       2.98347100      -0.05156500
C       -3.56691500       0.53850500      -0.11766500
C       -3.03687800      -0.73433100      -0.13279200
C       -1.64041100      -0.91883000      -0.09829200
C       -4.72314700       3.17392200      -0.08803700
C       -5.03773600       0.72818300      -0.15412500
N       -5.53143900       2.03522700      -0.13722100
O       -5.26133100       4.29529300      -0.07673500
O       -5.84203300      -0.21964700      -0.19870900
H        0.62972700      -2.20233100      -0.06573200
H        3.07286500      -2.48716200      -0.00439800
H        1.49989900       4.56697900       0.11841200
H        3.93550500       4.22152900       0.17822500
H        6.75033500       0.44779700       0.16755800
H       -0.40199700       4.81321100       0.07071000
H       -2.84532000       5.09816700       0.00933800
H       -3.70773700      -1.61056600      -0.17200800
H       -1.27202900      -1.95588300      -0.11238600
H       -6.52266300       2.16338500      -0.16179200
C        3.78324535       2.60243428       6.44511213
C        4.54636145       2.20607130       7.58988481
C        4.61698351       3.10157165       8.73977383
C        3.08761429       3.85292948       6.39766456
C        3.15800843       4.74838196       7.54750231
C        3.92123728       4.35201886       8.69220561
C        3.98998202       5.22237596       9.81021496
C        3.30552279       6.46933383       9.78242616
C        4.74331177       4.84640426      10.95699809
C        4.81548552       5.75630694      12.12637148
C        2.50476459       5.97158471       7.55816287
C        2.57545328       6.83340487       8.67074692
C        5.34067270       2.77078028       9.87545370
C        5.40672950       3.63790575      10.98414745
C        3.37724437       7.37965502      10.95141120
N        4.12823481       6.97088071      12.05652078
O        5.45680035       5.48491955      13.15707160
O        2.80161225       8.48173677      10.98788793
C        5.19939759       0.98285710       7.57948520
C        5.12871107       0.12101284       6.46696930
C        3.71446652       1.73223014       5.32710869
C        4.39883582       0.48529208       5.35529001
C        2.96135329       2.10822007       4.18018846
C        2.29819235       3.31684547       4.15332324
C        2.36411264       4.18394183       5.26199300
C        4.32716654      -0.42509597       4.18627218
C        2.88925411       1.19834577       3.01076469
N        3.57641897      -0.01625824       3.08100701
O        4.90263013      -1.52725851       4.14991175
O        2.24820844       1.46971899       1.97990091
H        1.90815781       6.31253183       6.69836735
H        2.04527117       7.80181415       8.65209506
H        5.88896771       1.81942543       9.95102988
H        5.99056491       3.34913226      11.87580646
H        4.17676837       7.58423602      12.84455475
H        5.79580914       0.64192644       8.43943083
H        5.65871497      -0.84755979       6.48560645
H        1.71447681       3.60582107       3.26161324
H        1.81599967       5.13539875       5.18659565
H        3.52801168      -0.62968974       2.29302747
