80
Dimer: struct; Energy: -4906.06228 eV
C       -1.29972200       1.48833600      -0.03228100
C       -0.45010500       2.63965400       0.01843500
C        0.99654200       2.45238200       0.05441800
C       -0.76903400       0.15867800      -0.04877100
C        0.67752200      -0.02870400      -0.01297900
C        1.52709100       1.12265000       0.03785500
C        2.93347700       0.94084900       0.07277000
C        3.48023700      -0.37253000       0.05696900
C        3.79427800       2.07240500       0.12351100
C        5.26507800       1.88272800       0.16006300
C        1.24802600      -1.29258500      -0.02698300
C        2.64560500      -1.46904700       0.00777700
C        1.86805800       3.52983300       0.10418700
C        3.26457400       3.34539700       0.13880400
C        4.95087500      -0.56291500       0.09346700
N        5.75909100       0.57580800       0.14293500
O        6.06925500       2.83065500       0.20492200
O        5.48910000      -1.68427500       0.08194900
C       -1.02041300       3.90352800       0.03216900
C       -2.41794600       4.08003500      -0.00262400
C       -2.70602800       1.67000700      -0.06716000
C       -3.25245200       2.98347100      -0.05156500
C       -3.56691500       0.53850500      -0.11766500
C       -3.03687800      -0.73433100      -0.13279200
C       -1.64041100      -0.91883000      -0.09829200
C       -4.72314700       3.17392200      -0.08803700
C       -5.03773600       0.72818300      -0.15412500
N       -5.53143900       2.03522700      -0.13722100
O       -5.26133100       4.29529300      -0.07673500
O       -5.84203300      -0.21964700      -0.19870900
H        0.62972700      -2.20233100      -0.06573200
H        3.07286500      -2.48716200      -0.00439800
H        1.49989900       4.56697900       0.11841200
H        3.93550500       4.22152900       0.17822500
H        6.75033500       0.44779700       0.16755800
H       -0.40199700       4.81321100       0.07071000
H       -2.84532000       5.09816700       0.00933800
H       -3.70773700      -1.61056600      -0.17200800
H       -1.27202900      -1.95588300      -0.11238600
H       -6.52266300       2.16338500      -0.16179200
C        8.28783240       5.62907746       4.22228845
C        7.87870805       5.24082420       5.53827894
C        7.89544862       6.23328813       6.60780605
C        8.71270813       6.96404544       3.92693580
C        8.72931459       7.95658777       4.99628200
C        8.32029040       7.56824864       6.31228335
C        8.33641119       8.53291062       7.35216777
C        8.75524260       9.86480474       7.07867393
C        7.93366416       8.16638627       8.66648384
C        7.95039908       9.17487691       9.75424880
C        9.13093361       9.26430097       4.76900586
C        9.14552564      10.21969677       5.80466029
C        7.51033453       5.91470491       7.90129343
C        7.52767741       6.87559824       8.93175699
C        8.77218709      10.87375383       8.16591323
N        8.36873682      10.47087014       9.44155537
O        7.61043095       8.91653179      10.92256299
O        9.12752179      12.05279563       7.99022952
C        7.47682821       3.93330104       5.76564007
C        7.46218680       2.97790651       4.73003846
C        8.27178664       4.66455315       3.18240728
C        7.85271353       3.33284566       3.45616439
C        8.67473979       5.03092545       1.86811125
C        9.08080713       6.32174988       1.60323174
C        9.09806591       7.28269189       2.63359226
C        7.83577322       2.32380574       2.36892153
C        8.65809161       4.02239829       0.78035333
N        8.23948305       2.72655102       1.09330563
O        7.48023065       1.14483457       2.54458922
O        8.99828899       4.28052845      -0.38793502
H        9.45240280       9.60223619       3.77206541
H        9.47007086      11.25417445       5.59541444
H        7.17756778       4.90024137       8.16877287
H        7.21571145       6.59440797       9.95299104
H        8.38006802      11.15068040      10.17455427
H        7.15518044       3.59553605       6.76258763
H        7.13744329       1.94340213       4.93914785
H        9.39299678       6.60300965       0.58205202
H        9.43090920       8.29718354       2.36637530
H        8.22814719       2.04662715       0.36041528
