80
Dimer: struct; Energy: -4906.06228 eV
C       -1.29972200       1.48833600      -0.03228100
C       -0.45010500       2.63965400       0.01843500
C        0.99654200       2.45238200       0.05441800
C       -0.76903400       0.15867800      -0.04877100
C        0.67752200      -0.02870400      -0.01297900
C        1.52709100       1.12265000       0.03785500
C        2.93347700       0.94084900       0.07277000
C        3.48023700      -0.37253000       0.05696900
C        3.79427800       2.07240500       0.12351100
C        5.26507800       1.88272800       0.16006300
C        1.24802600      -1.29258500      -0.02698300
C        2.64560500      -1.46904700       0.00777700
C        1.86805800       3.52983300       0.10418700
C        3.26457400       3.34539700       0.13880400
C        4.95087500      -0.56291500       0.09346700
N        5.75909100       0.57580800       0.14293500
O        6.06925500       2.83065500       0.20492200
O        5.48910000      -1.68427500       0.08194900
C       -1.02041300       3.90352800       0.03216900
C       -2.41794600       4.08003500      -0.00262400
C       -2.70602800       1.67000700      -0.06716000
C       -3.25245200       2.98347100      -0.05156500
C       -3.56691500       0.53850500      -0.11766500
C       -3.03687800      -0.73433100      -0.13279200
C       -1.64041100      -0.91883000      -0.09829200
C       -4.72314700       3.17392200      -0.08803700
C       -5.03773600       0.72818300      -0.15412500
N       -5.53143900       2.03522700      -0.13722100
O       -5.26133100       4.29529300      -0.07673500
O       -5.84203300      -0.21964700      -0.19870900
H        0.62972700      -2.20233100      -0.06573200
H        3.07286500      -2.48716200      -0.00439800
H        1.49989900       4.56697900       0.11841200
H        3.93550500       4.22152900       0.17822500
H        6.75033500       0.44779700       0.16755800
H       -0.40199700       4.81321100       0.07071000
H       -2.84532000       5.09816700       0.00933800
H       -3.70773700      -1.61056600      -0.17200800
H       -1.27202900      -1.95588300      -0.11238600
H       -6.52266300       2.16338500      -0.16179200
C        1.63530847       4.75280703       5.11723259
C        0.61544118       4.34784752       4.19754089
C       -0.76396319       4.75484498       4.44401558
C        1.33899334       5.54602017       6.27174649
C       -0.04027030       5.95320995       6.51821274
C       -1.06011826       5.54812244       5.59854874
C       -2.40116294       5.94372151       5.83790782
C       -2.71583039       6.73220084       6.97959311
C       -3.42868089       5.55111148       4.93566825
C       -4.83122676       5.96457644       5.18562394
C       -0.38631540       6.72154991       7.61956310
C       -1.71965445       7.11255621       7.85386038
C       -1.79293125       4.39216765       3.58809057
C       -3.12392119       4.78695473       3.82909027
C       -4.11809461       7.14601996       7.23011947
N       -5.09553643       6.73840985       6.31863072
O       -5.77299907       5.65353039       4.43489506
O       -4.45637404       7.83460747       8.20924221
C        0.96134625       3.57978400       3.09606668
C        2.29463937       3.18879423       2.86171605
C        2.97629009       4.35726071       4.87800706
C        3.29065520       3.56899243       3.73615866
C        4.00383991       4.74962597       5.78031789
C        3.69870184       5.51364651       6.88686337
C        2.36779085       5.90855085       7.12785448
C        4.69295930       3.15510552       3.48558653
C        5.40638932       4.33607842       5.53040773
N        5.67041881       3.56244580       4.39719398
O        5.03123634       2.46670338       2.50634508
O        6.34821244       4.64681779       6.28118955
H        0.36786355       7.05308833       8.34944618
H       -1.96690996       7.72452951       8.73907837
H       -1.60645822       3.78323712       2.69040096
H       -3.92382749       4.48391461       3.13078783
H       -6.04074970       7.01716104       6.48723503
H        0.20710173       3.24847871       2.36613592
H        2.54204133       2.57696386       1.97636851
H        4.49851782       5.81658261       7.58536289
H        2.18106269       6.51737918       8.02554235
H        6.61557943       3.28358364       4.22849154
