80
Dimer: struct; Energy: -4906.06228 eV
C       -1.29972200       1.48833600      -0.03228100
C       -0.45010500       2.63965400       0.01843500
C        0.99654200       2.45238200       0.05441800
C       -0.76903400       0.15867800      -0.04877100
C        0.67752200      -0.02870400      -0.01297900
C        1.52709100       1.12265000       0.03785500
C        2.93347700       0.94084900       0.07277000
C        3.48023700      -0.37253000       0.05696900
C        3.79427800       2.07240500       0.12351100
C        5.26507800       1.88272800       0.16006300
C        1.24802600      -1.29258500      -0.02698300
C        2.64560500      -1.46904700       0.00777700
C        1.86805800       3.52983300       0.10418700
C        3.26457400       3.34539700       0.13880400
C        4.95087500      -0.56291500       0.09346700
N        5.75909100       0.57580800       0.14293500
O        6.06925500       2.83065500       0.20492200
O        5.48910000      -1.68427500       0.08194900
C       -1.02041300       3.90352800       0.03216900
C       -2.41794600       4.08003500      -0.00262400
C       -2.70602800       1.67000700      -0.06716000
C       -3.25245200       2.98347100      -0.05156500
C       -3.56691500       0.53850500      -0.11766500
C       -3.03687800      -0.73433100      -0.13279200
C       -1.64041100      -0.91883000      -0.09829200
C       -4.72314700       3.17392200      -0.08803700
C       -5.03773600       0.72818300      -0.15412500
N       -5.53143900       2.03522700      -0.13722100
O       -5.26133100       4.29529300      -0.07673500
O       -5.84203300      -0.21964700      -0.19870900
H        0.62972700      -2.20233100      -0.06573200
H        3.07286500      -2.48716200      -0.00439800
H        1.49989900       4.56697900       0.11841200
H        3.93550500       4.22152900       0.17822500
H        6.75033500       0.44779700       0.16755800
H       -0.40199700       4.81321100       0.07071000
H       -2.84532000       5.09816700       0.00933800
H       -3.70773700      -1.61056600      -0.17200800
H       -1.27202900      -1.95588300      -0.11238600
H       -6.52266300       2.16338500      -0.16179200
C        2.92782941       3.96740416       8.06707427
C        2.06691296       3.00686245       8.68847332
C        1.97900541       2.97059546      10.14453310
C        3.70456468       4.89316380       8.83489161
C        3.61660435       4.85711563      10.29087267
C        2.75575869       3.89647271      10.91222408
C        2.67007808       3.86107129      12.32770909
C        3.43395290       4.77285210      13.10829322
C        1.82036241       2.91376766      12.96376812
C        1.73048838       2.87639074      14.44400178
C        4.34528526       5.72917114      11.08561126
C        4.25742040       5.69088705      12.49145202
C        1.16246246       2.06228153      10.80114649
C        1.07992093       2.03001459      12.20742444
C        3.34453232       4.73604433      14.58849720
N        2.49780071       3.78977313      15.17156380
O        1.00674228       2.07270272      15.05845741
O        3.98644265       5.50586111      15.32511129
C        1.33800624       2.13497473       7.89391425
C        1.42580967       2.17324364       6.48810850
C        3.01360896       4.00286774       6.65169387
C        2.24947169       3.09113000       5.87141277
C        3.86347643       4.94998107       6.01555270
C        4.60388227       5.83347391       6.77220264
C        4.52130441       5.80133712       8.17843816
C        2.33887724       3.12787791       4.39114192
C        3.95342078       4.98729713       4.53530306
N        3.18581138       4.07394422       3.80801035
O        1.69679436       2.35819514       3.65455473
O        4.67732458       5.79074058       3.92072595
H        5.01781870       6.48183102      10.64670944
H        4.84905905       6.39728758      13.09990867
H        0.55007901       1.33456154      10.24722831
H        0.42137904       1.29599840      12.70426699
H        2.43733954       3.76472058      16.16919830
H        0.66534239       1.38248958       8.33293174
H        0.83402219       1.46698662       5.87952572
H        5.26263068       6.56741898       6.27546064
H        5.13368612       6.52887776       8.73256461
H        3.24621058       4.09885238       2.81037076
