80
Dimer: struct; Energy: -4906.06228 eV
C       -1.29972200       1.48833600      -0.03228100
C       -0.45010500       2.63965400       0.01843500
C        0.99654200       2.45238200       0.05441800
C       -0.76903400       0.15867800      -0.04877100
C        0.67752200      -0.02870400      -0.01297900
C        1.52709100       1.12265000       0.03785500
C        2.93347700       0.94084900       0.07277000
C        3.48023700      -0.37253000       0.05696900
C        3.79427800       2.07240500       0.12351100
C        5.26507800       1.88272800       0.16006300
C        1.24802600      -1.29258500      -0.02698300
C        2.64560500      -1.46904700       0.00777700
C        1.86805800       3.52983300       0.10418700
C        3.26457400       3.34539700       0.13880400
C        4.95087500      -0.56291500       0.09346700
N        5.75909100       0.57580800       0.14293500
O        6.06925500       2.83065500       0.20492200
O        5.48910000      -1.68427500       0.08194900
C       -1.02041300       3.90352800       0.03216900
C       -2.41794600       4.08003500      -0.00262400
C       -2.70602800       1.67000700      -0.06716000
C       -3.25245200       2.98347100      -0.05156500
C       -3.56691500       0.53850500      -0.11766500
C       -3.03687800      -0.73433100      -0.13279200
C       -1.64041100      -0.91883000      -0.09829200
C       -4.72314700       3.17392200      -0.08803700
C       -5.03773600       0.72818300      -0.15412500
N       -5.53143900       2.03522700      -0.13722100
O       -5.26133100       4.29529300      -0.07673500
O       -5.84203300      -0.21964700      -0.19870900
H        0.62972700      -2.20233100      -0.06573200
H        3.07286500      -2.48716200      -0.00439800
H        1.49989900       4.56697900       0.11841200
H        3.93550500       4.22152900       0.17822500
H        6.75033500       0.44779700       0.16755800
H       -0.40199700       4.81321100       0.07071000
H       -2.84532000       5.09816700       0.00933800
H       -3.70773700      -1.61056600      -0.17200800
H       -1.27202900      -1.95588300      -0.11238600
H       -6.52266300       2.16338500      -0.16179200
C        4.01426050       0.37607153       5.60651201
C        4.74170149       1.59243636       5.80958957
C        4.16908240       2.84852650       5.33683374
C        2.74069670       0.35833446       4.95259099
C        2.16792428       1.61431611       4.47998209
C        2.89546462       2.83063990       4.68298239
C        2.33896651       4.05187722       4.22354632
C        1.07445894       4.05507525       3.57149499
C        3.04661721       5.27098676       4.41583360
C        2.46502369       6.54832665       3.93550262
C        0.93834305       1.65808378       3.84023174
C        0.38885615       2.87327077       3.38530440
C        4.82803036       4.05693347       5.50552854
C        4.27215751       5.26811250       5.04779210
C        0.49229943       5.33200079       3.09096804
N        1.22108035       6.50558613       3.30055355
O        3.03404153       7.64580179       4.07350833
O       -0.60781104       5.40023804       2.51445465
C        5.97109231       1.54887067       6.44952517
C        6.52058751       0.33374614       6.90448800
C        4.57064321      -0.84514505       6.06584393
C        5.83502483      -0.84798299       6.71802575
C        3.86317323      -2.06433437       5.87339239
C        2.63774038      -2.06110920       5.24126625
C        2.08177523      -0.84998874       4.78361986
C        6.41726848      -2.12493812       7.19857075
C        4.44481676      -3.34170148       6.35364811
N        5.68866601      -3.29860828       6.98876575
O        7.51727514      -2.19311399       7.77526830
O        3.87604380      -4.43927478       6.21546968
H        0.34825646       0.74562103       3.66518183
H       -0.59236433       2.87888791       2.87891294
H        5.80833833       4.11276216       6.00281586
H        4.81880428       6.21610436       5.19543501
H        0.82896234       7.36638083       2.97677319
H        6.56099445       2.46143575       6.62470324
H        7.50175702       0.32804980       7.41110258
H        2.09108184      -3.00909261       5.09338333
H        1.10153892      -0.90558861       4.28619822
H        6.08092464      -4.15933317       7.31255435
