80
Dimer: struct; Energy: -4906.06228 eV
C       -1.29972200       1.48833600      -0.03228100
C       -0.45010500       2.63965400       0.01843500
C        0.99654200       2.45238200       0.05441800
C       -0.76903400       0.15867800      -0.04877100
C        0.67752200      -0.02870400      -0.01297900
C        1.52709100       1.12265000       0.03785500
C        2.93347700       0.94084900       0.07277000
C        3.48023700      -0.37253000       0.05696900
C        3.79427800       2.07240500       0.12351100
C        5.26507800       1.88272800       0.16006300
C        1.24802600      -1.29258500      -0.02698300
C        2.64560500      -1.46904700       0.00777700
C        1.86805800       3.52983300       0.10418700
C        3.26457400       3.34539700       0.13880400
C        4.95087500      -0.56291500       0.09346700
N        5.75909100       0.57580800       0.14293500
O        6.06925500       2.83065500       0.20492200
O        5.48910000      -1.68427500       0.08194900
C       -1.02041300       3.90352800       0.03216900
C       -2.41794600       4.08003500      -0.00262400
C       -2.70602800       1.67000700      -0.06716000
C       -3.25245200       2.98347100      -0.05156500
C       -3.56691500       0.53850500      -0.11766500
C       -3.03687800      -0.73433100      -0.13279200
C       -1.64041100      -0.91883000      -0.09829200
C       -4.72314700       3.17392200      -0.08803700
C       -5.03773600       0.72818300      -0.15412500
N       -5.53143900       2.03522700      -0.13722100
O       -5.26133100       4.29529300      -0.07673500
O       -5.84203300      -0.21964700      -0.19870900
H        0.62972700      -2.20233100      -0.06573200
H        3.07286500      -2.48716200      -0.00439800
H        1.49989900       4.56697900       0.11841200
H        3.93550500       4.22152900       0.17822500
H        6.75033500       0.44779700       0.16755800
H       -0.40199700       4.81321100       0.07071000
H       -2.84532000       5.09816700       0.00933800
H       -3.70773700      -1.61056600      -0.17200800
H       -1.27202900      -1.95588300      -0.11238600
H       -6.52266300       2.16338500      -0.16179200
C        6.03807157       8.65623012       2.15949985
C        4.92533824       9.09992619       1.37533620
C        4.27759469      10.36274801       1.71424983
C        6.53264164       9.41741631       3.26669816
C        5.88513082      10.68027418       3.60557439
C        4.77232437      11.12386603       2.82144704
C        4.14250484      12.35151549       3.15068314
C        4.61931127      13.12246025       4.24725069
C        3.03528198      12.80921854       2.38352120
C        2.37633656      14.09297648       2.72750165
C        6.32079997      11.45953908       4.66670808
C        5.69250839      12.67852478       4.99058723
C        3.19618351      10.84225913       0.99069147
C        2.57302941      12.06219876       1.32068875
C        3.96088308      14.40626431       4.59174180
N        2.87697924      14.81796697       3.81199591
O        1.40533488      14.54635895       2.09593325
O        4.33065486      15.12465040       5.53749934
C        4.48975030       8.32095646       0.31406968
C        5.11801475       7.10201536      -0.00985952
C        6.66790073       7.42866159       1.83039775
C        6.19101108       6.65808118       0.73367893
C        7.77498249       6.97076272       2.59764775
C        8.23687049       7.71795477       3.66049442
C        7.61385308       8.93792125       3.99046609
C        6.84941376       5.37420136       0.38914432
C        8.43387791       5.68694368       2.25371900
N        7.93315483       4.96229491       1.16902874
O        6.47975600       4.65594862      -0.55674616
O        9.40470589       5.23330844       2.88536067
H        7.17241789      11.15369879       5.29331925
H        6.06034934      13.27904119       5.84107566
H        2.78641825      10.28705207       0.13322266
H        1.71341129      12.42031827       0.72729444
H        2.43299187      15.68319959       4.04395604
H        3.63824465       8.62700804      -0.31260207
H        4.75036070       6.50149697      -0.86050195
H        9.09637675       7.35982442       4.25410130
H        8.02336774       9.49323700       4.84796537
H        8.37701508       4.09702202       0.93698536
