80
Dimer: struct; Energy: -4906.06228 eV
C       -1.29972200       1.48833600      -0.03228100
C       -0.45010500       2.63965400       0.01843500
C        0.99654200       2.45238200       0.05441800
C       -0.76903400       0.15867800      -0.04877100
C        0.67752200      -0.02870400      -0.01297900
C        1.52709100       1.12265000       0.03785500
C        2.93347700       0.94084900       0.07277000
C        3.48023700      -0.37253000       0.05696900
C        3.79427800       2.07240500       0.12351100
C        5.26507800       1.88272800       0.16006300
C        1.24802600      -1.29258500      -0.02698300
C        2.64560500      -1.46904700       0.00777700
C        1.86805800       3.52983300       0.10418700
C        3.26457400       3.34539700       0.13880400
C        4.95087500      -0.56291500       0.09346700
N        5.75909100       0.57580800       0.14293500
O        6.06925500       2.83065500       0.20492200
O        5.48910000      -1.68427500       0.08194900
C       -1.02041300       3.90352800       0.03216900
C       -2.41794600       4.08003500      -0.00262400
C       -2.70602800       1.67000700      -0.06716000
C       -3.25245200       2.98347100      -0.05156500
C       -3.56691500       0.53850500      -0.11766500
C       -3.03687800      -0.73433100      -0.13279200
C       -1.64041100      -0.91883000      -0.09829200
C       -4.72314700       3.17392200      -0.08803700
C       -5.03773600       0.72818300      -0.15412500
N       -5.53143900       2.03522700      -0.13722100
O       -5.26133100       4.29529300      -0.07673500
O       -5.84203300      -0.21964700      -0.19870900
H        0.62972700      -2.20233100      -0.06573200
H        3.07286500      -2.48716200      -0.00439800
H        1.49989900       4.56697900       0.11841200
H        3.93550500       4.22152900       0.17822500
H        6.75033500       0.44779700       0.16755800
H       -0.40199700       4.81321100       0.07071000
H       -2.84532000       5.09816700       0.00933800
H       -3.70773700      -1.61056600      -0.17200800
H       -1.27202900      -1.95588300      -0.11238600
H       -6.52266300       2.16338500      -0.16179200
C        8.33411521       6.74298644       7.35104222
C        7.10811325       6.75337655       8.09047818
C        5.94718876       6.05501372       7.54854016
C        8.45231937       6.06627922       6.09486263
C        7.29157874       5.36776562       5.55294263
C        6.06556529       5.37828706       6.29236669
C        4.93686097       4.69938623       5.76576203
C        5.03429055       4.02092449       4.51902320
C        3.70973030       4.69841726       6.48556850
C        2.52912710       3.98859492       5.93521009
C        7.34728016       4.69534775       4.34140738
C        6.22384257       4.02206991       3.82163907
C        4.73420520       6.03129341       8.22012482
C        3.61509731       5.35588528       7.69391830
C        3.85414217       3.31091005       3.96812939
N        2.66904708       3.33546821       4.70792447
O        1.42982459       3.95129641       6.51608993
O        3.87604551       2.70023697       2.88467856
C        7.05233294       7.42547768       9.30208288
C        8.17572272       8.09872101       9.82189304
C        9.46279541       7.42183929       7.87749953
C        9.36510892       8.10000146       9.12432089
C       10.68990224       7.42306066       7.15765143
C       10.78413410       6.76562515       5.94927300
C        9.66513125       6.09012292       5.42307954
C       10.54526957       8.81008455       9.67527315
C       11.87049401       8.13296930       7.70797342
N       11.73032831       8.78580580       8.93538961
O       10.52339447       9.42056304      10.75882295
O       12.96977109       8.17058178       7.12707903
H        8.27055351       4.66368953       3.74307887
H        6.29644132       3.49461417       2.85428322
H        4.60268080       6.53907653       9.18773676
H        2.66115297       5.35319276       8.25005917
H        1.87346005       2.85701896       4.33686467
H        6.12905213       7.45688954       9.90042456
H        8.10328040       8.62605825      10.78939081
H       11.73799666       6.76842197       5.39293150
H        9.79638566       5.58237442       4.45542949
H       12.52581970       9.26433505       9.30654513
