80
Dimer: struct; Energy: -4906.06228 eV
C       -1.29972200       1.48833600      -0.03228100
C       -0.45010500       2.63965400       0.01843500
C        0.99654200       2.45238200       0.05441800
C       -0.76903400       0.15867800      -0.04877100
C        0.67752200      -0.02870400      -0.01297900
C        1.52709100       1.12265000       0.03785500
C        2.93347700       0.94084900       0.07277000
C        3.48023700      -0.37253000       0.05696900
C        3.79427800       2.07240500       0.12351100
C        5.26507800       1.88272800       0.16006300
C        1.24802600      -1.29258500      -0.02698300
C        2.64560500      -1.46904700       0.00777700
C        1.86805800       3.52983300       0.10418700
C        3.26457400       3.34539700       0.13880400
C        4.95087500      -0.56291500       0.09346700
N        5.75909100       0.57580800       0.14293500
O        6.06925500       2.83065500       0.20492200
O        5.48910000      -1.68427500       0.08194900
C       -1.02041300       3.90352800       0.03216900
C       -2.41794600       4.08003500      -0.00262400
C       -2.70602800       1.67000700      -0.06716000
C       -3.25245200       2.98347100      -0.05156500
C       -3.56691500       0.53850500      -0.11766500
C       -3.03687800      -0.73433100      -0.13279200
C       -1.64041100      -0.91883000      -0.09829200
C       -4.72314700       3.17392200      -0.08803700
C       -5.03773600       0.72818300      -0.15412500
N       -5.53143900       2.03522700      -0.13722100
O       -5.26133100       4.29529300      -0.07673500
O       -5.84203300      -0.21964700      -0.19870900
H        0.62972700      -2.20233100      -0.06573200
H        3.07286500      -2.48716200      -0.00439800
H        1.49989900       4.56697900       0.11841200
H        3.93550500       4.22152900       0.17822500
H        6.75033500       0.44779700       0.16755800
H       -0.40199700       4.81321100       0.07071000
H       -2.84532000       5.09816700       0.00933800
H       -3.70773700      -1.61056600      -0.17200800
H       -1.27202900      -1.95588300      -0.11238600
H       -6.52266300       2.16338500      -0.16179200
C        3.96471409       1.73940516       4.08979856
C        2.67303870       1.46767125       3.53510074
C        1.62560669       2.47712937       3.64926555
C        4.25684462       2.97411430       4.75315756
C        3.20960407       3.98366634       4.86721568
C        1.91790905       3.71183138       4.31260109
C        0.89951223       4.69304700       4.42339855
C        1.17020439       5.92644230       5.07885439
C       -0.39049492       4.44160093       3.87876251
C       -1.45578599       5.46743750       3.99443587
C        3.43491565       5.19760408       5.49860776
C        2.42065447       6.16980970       5.60661083
C        0.35611810       2.26929768       3.13146012
C       -0.65304653       3.24629252       3.24344110
C        0.10543227       6.95267859       5.19484609
N       -1.14670273       6.66428201       4.64590565
O       -2.60237312       5.30737496       3.53946718
O        0.27989896       8.04924474       5.75553417
C        2.44766461       0.25396719       2.90347878
C        3.46187660      -0.71822720       2.79542388
C        4.98310522       0.75831273       3.97909800
C        4.71217133      -0.47484972       3.32341876
C        6.27307478       1.00957507       4.52390965
C        6.53522887       2.20491848       5.15929055
C        5.52617392       3.18197207       5.27120386
C        5.77694483      -1.50117633       3.20741602
C        7.33835197      -0.01631179       4.40831493
N        7.02903258      -1.21295879       3.75658652
O        5.60251019      -2.59763857       2.64653654
O        8.48489279       0.14350135       4.86347094
H        4.41352569       5.44469394       5.93758601
H        2.62778621       7.12801299       6.11474505
H        0.09189853       1.33406317       2.61479810
H       -1.65538663       3.05430336       2.82182019
H       -1.86455649       7.35576848       4.72394551
H        1.46906352       0.00707522       2.46435329
H        3.25489435      -1.67642796       2.28709913
H        7.53750050       2.39694039       5.58113962
H        5.79012692       4.11722989       5.78792863
H        7.74677607      -1.90455293       3.67851569
