80
Dimer: struct; Energy: -4906.06228 eV
C       -1.29972200       1.48833600      -0.03228100
C       -0.45010500       2.63965400       0.01843500
C        0.99654200       2.45238200       0.05441800
C       -0.76903400       0.15867800      -0.04877100
C        0.67752200      -0.02870400      -0.01297900
C        1.52709100       1.12265000       0.03785500
C        2.93347700       0.94084900       0.07277000
C        3.48023700      -0.37253000       0.05696900
C        3.79427800       2.07240500       0.12351100
C        5.26507800       1.88272800       0.16006300
C        1.24802600      -1.29258500      -0.02698300
C        2.64560500      -1.46904700       0.00777700
C        1.86805800       3.52983300       0.10418700
C        3.26457400       3.34539700       0.13880400
C        4.95087500      -0.56291500       0.09346700
N        5.75909100       0.57580800       0.14293500
O        6.06925500       2.83065500       0.20492200
O        5.48910000      -1.68427500       0.08194900
C       -1.02041300       3.90352800       0.03216900
C       -2.41794600       4.08003500      -0.00262400
C       -2.70602800       1.67000700      -0.06716000
C       -3.25245200       2.98347100      -0.05156500
C       -3.56691500       0.53850500      -0.11766500
C       -3.03687800      -0.73433100      -0.13279200
C       -1.64041100      -0.91883000      -0.09829200
C       -4.72314700       3.17392200      -0.08803700
C       -5.03773600       0.72818300      -0.15412500
N       -5.53143900       2.03522700      -0.13722100
O       -5.26133100       4.29529300      -0.07673500
O       -5.84203300      -0.21964700      -0.19870900
H        0.62972700      -2.20233100      -0.06573200
H        3.07286500      -2.48716200      -0.00439800
H        1.49989900       4.56697900       0.11841200
H        3.93550500       4.22152900       0.17822500
H        6.75033500       0.44779700       0.16755800
H       -0.40199700       4.81321100       0.07071000
H       -2.84532000       5.09816700       0.00933800
H       -3.70773700      -1.61056600      -0.17200800
H       -1.27202900      -1.95588300      -0.11238600
H       -6.52266300       2.16338500      -0.16179200
C        4.40387715       0.37849805       7.60367904
C        4.17844058      -0.24592417       8.87223315
C        4.17639753       0.57690792      10.07726273
C        4.62719081       1.78773383       7.48502998
C        4.62498770       2.61064995       8.68990406
C        4.39966182       1.98615588       9.95844773
C        4.39755849       2.78587181      11.13004589
C        4.61744715       4.18814774      11.03292866
C        4.17553459       2.18386699      12.39979688
C        4.17328149       3.01981075      13.62525966
C        4.83547048       3.98026695       8.63593753
C        4.83259942       4.77129145       9.80206195
C        3.96372878       0.02729467      11.33249778
C        3.96237341       0.82482670      12.49414004
C        4.61529172       5.02464463      12.25792784
N        4.39330408       4.39241019      13.48404013
O        3.98529176       2.55329788      14.76293455
O        4.80126851       6.25440310      12.23859362
C        3.96768493      -1.61540311       8.92633327
C        3.97051229      -2.40644071       7.76026497
C        4.40603766      -0.42107301       6.43209937
C        4.18591303      -1.82323695       6.52952374
C        4.62828604       0.18080845       5.16232840
C        4.84156108       1.53983954       5.06837220
C        4.84010643       2.33742232       6.22992712
C        4.18808359      -2.65982179       5.30450673
C        4.63063003      -0.65516011       3.93686010
N        4.41034738      -2.02769081       4.07837845
O        4.00189116      -3.88953753       5.32385247
O        4.81887552      -0.18882986       2.79915941
H        5.01215808       4.49783850       7.68077571
H        5.00294966       5.85987735       9.72981920
H        3.78850668      -1.05110017      11.46582830
H        3.79036778       0.36072905      13.48122521
H        4.39181048       4.95595130      14.30985909
H        3.79080044      -2.13283354       9.88154243
H        3.79995616      -3.49506081       7.83238486
H        5.01378420       2.00402855       4.08133358
H        5.01542648       3.41581794       6.09685339
H        4.41186130      -2.59135936       3.25264926
