80
Dimer: struct; Energy: -4906.06228 eV
C       -1.29972200       1.48833600      -0.03228100
C       -0.45010500       2.63965400       0.01843500
C        0.99654200       2.45238200       0.05441800
C       -0.76903400       0.15867800      -0.04877100
C        0.67752200      -0.02870400      -0.01297900
C        1.52709100       1.12265000       0.03785500
C        2.93347700       0.94084900       0.07277000
C        3.48023700      -0.37253000       0.05696900
C        3.79427800       2.07240500       0.12351100
C        5.26507800       1.88272800       0.16006300
C        1.24802600      -1.29258500      -0.02698300
C        2.64560500      -1.46904700       0.00777700
C        1.86805800       3.52983300       0.10418700
C        3.26457400       3.34539700       0.13880400
C        4.95087500      -0.56291500       0.09346700
N        5.75909100       0.57580800       0.14293500
O        6.06925500       2.83065500       0.20492200
O        5.48910000      -1.68427500       0.08194900
C       -1.02041300       3.90352800       0.03216900
C       -2.41794600       4.08003500      -0.00262400
C       -2.70602800       1.67000700      -0.06716000
C       -3.25245200       2.98347100      -0.05156500
C       -3.56691500       0.53850500      -0.11766500
C       -3.03687800      -0.73433100      -0.13279200
C       -1.64041100      -0.91883000      -0.09829200
C       -4.72314700       3.17392200      -0.08803700
C       -5.03773600       0.72818300      -0.15412500
N       -5.53143900       2.03522700      -0.13722100
O       -5.26133100       4.29529300      -0.07673500
O       -5.84203300      -0.21964700      -0.19870900
H        0.62972700      -2.20233100      -0.06573200
H        3.07286500      -2.48716200      -0.00439800
H        1.49989900       4.56697900       0.11841200
H        3.93550500       4.22152900       0.17822500
H        6.75033500       0.44779700       0.16755800
H       -0.40199700       4.81321100       0.07071000
H       -2.84532000       5.09816700       0.00933800
H       -3.70773700      -1.61056600      -0.17200800
H       -1.27202900      -1.95588300      -0.11238600
H       -6.52266300       2.16338500      -0.16179200
C        5.74641086       8.89002965       1.07795133
C        5.22059641       9.98190010       0.31552599
C        3.78863418      10.02918005       0.03911707
C        4.90600325       7.84361784       1.57657889
C        3.47407750       7.89088395       1.30040521
C        2.94833277       8.98271939       0.53787293
C        1.55627855       9.02893802       0.26909586
C        0.70453221       7.99861047       0.75603926
C        1.01483919      10.10563597      -0.48690478
C       -0.44085660      10.15433820      -0.76823003
C        2.61196164       6.90569790       1.75782275
C        1.22966997       6.95518815       1.48876032
C        3.22341502      11.06175353      -0.69384749
C        1.84015779      11.10432922      -0.95891096
C       -0.75118949       8.04670866       0.47512007
N       -1.24048442       9.12197838      -0.27102720
O       -0.97396352      11.06807957      -1.42256350
O       -1.54677909       7.17715891       0.87284797
C        6.08248854      10.96724413      -0.14170089
C        7.46474301      10.91781585       0.12735892
C        7.13836059       8.84369450       1.34673837
C        7.98977936       9.87424888       0.85985664
C        7.67992533       7.76691270       2.10253102
C        6.85434594       6.76832266       2.57424719
C        5.47110565       6.81089467       2.30932428
C        9.44557537       9.82618541       1.14073643
C        9.13565302       7.71816258       2.38378147
N        9.93498564       8.75078743       1.88664398
O       10.24110137      10.69585772       0.74317997
O        9.66893347       6.80434955       3.03786160
H        2.97663427       6.05053012       2.34700426
H        0.56613094       6.15698687       1.86538770
H        3.83511458      11.88441920      -1.09442217
H        1.41668933      11.93861090      -1.54539050
H       -2.22159441       9.15465415      -0.46053514
H        5.71766199      11.82247906      -0.73070150
H        8.12836924      11.71611919      -0.24906690
H        7.27774532       5.93386277       3.16058082
H        4.85923109       5.98827850       2.70969290
H       10.91611920       8.71821480       2.07603564
