80
Dimer: struct; Energy: -4906.06228 eV
C       -1.29972200       1.48833600      -0.03228100
C       -0.45010500       2.63965400       0.01843500
C        0.99654200       2.45238200       0.05441800
C       -0.76903400       0.15867800      -0.04877100
C        0.67752200      -0.02870400      -0.01297900
C        1.52709100       1.12265000       0.03785500
C        2.93347700       0.94084900       0.07277000
C        3.48023700      -0.37253000       0.05696900
C        3.79427800       2.07240500       0.12351100
C        5.26507800       1.88272800       0.16006300
C        1.24802600      -1.29258500      -0.02698300
C        2.64560500      -1.46904700       0.00777700
C        1.86805800       3.52983300       0.10418700
C        3.26457400       3.34539700       0.13880400
C        4.95087500      -0.56291500       0.09346700
N        5.75909100       0.57580800       0.14293500
O        6.06925500       2.83065500       0.20492200
O        5.48910000      -1.68427500       0.08194900
C       -1.02041300       3.90352800       0.03216900
C       -2.41794600       4.08003500      -0.00262400
C       -2.70602800       1.67000700      -0.06716000
C       -3.25245200       2.98347100      -0.05156500
C       -3.56691500       0.53850500      -0.11766500
C       -3.03687800      -0.73433100      -0.13279200
C       -1.64041100      -0.91883000      -0.09829200
C       -4.72314700       3.17392200      -0.08803700
C       -5.03773600       0.72818300      -0.15412500
N       -5.53143900       2.03522700      -0.13722100
O       -5.26133100       4.29529300      -0.07673500
O       -5.84203300      -0.21964700      -0.19870900
H        0.62972700      -2.20233100      -0.06573200
H        3.07286500      -2.48716200      -0.00439800
H        1.49989900       4.56697900       0.11841200
H        3.93550500       4.22152900       0.17822500
H        6.75033500       0.44779700       0.16755800
H       -0.40199700       4.81321100       0.07071000
H       -2.84532000       5.09816700       0.00933800
H       -3.70773700      -1.61056600      -0.17200800
H       -1.27202900      -1.95588300      -0.11238600
H       -6.52266300       2.16338500      -0.16179200
C        7.94417177       6.24705055       0.89278580
C        7.17999828       6.06862258      -0.30477699
C        6.09855683       7.00217937      -0.60160897
C        7.67653896       7.31609198       1.80679629
C        6.59530151       8.24976844       1.50999471
C        5.83108212       8.07122333       0.31247311
C        4.77975955       8.97869172       0.02365790
C        4.49832772      10.04760916       0.91941021
C        4.00898197       8.81793020      -1.16125967
C        2.90944345       9.76668607      -1.46365576
C        6.29075900       9.30373449       2.35821375
C        5.24561340      10.20312032       2.06778312
C        5.32516409       6.87870741      -1.74595861
C        4.28159406       7.78203790      -2.02955606
C        3.39900673      10.99669964       0.61762333
N        2.66748465      10.80178101      -0.55678394
O        2.20052839       9.67940277      -2.48203666
O        3.10441147      11.95010282       1.36025586
C        7.48457533       5.01493273      -1.15318011
C        8.52970481       4.11556780      -0.86281681
C        8.99542231       5.33968128       1.18169890
C        9.27673426       4.27103321       0.28567159
C        9.76610222       5.50022454       2.36671042
C        9.49311913       6.53612790       3.23484865
C        8.44966867       7.43953319       2.95126403
C       10.37607456       3.32185701       0.58743480
C       10.86559511       4.55140221       2.66915557
N       11.10746191       3.51654992       1.76197665
O       10.67078196       2.36859748      -0.15532120
O       11.57440809       4.63840038       3.68762432
H        6.85433513       9.47509202       3.28797257
H        5.02486460      11.03369545       2.76108854
H        5.49903261       6.07092545      -2.47305783
H        3.68142047       7.66009141      -2.94837619
H        1.92647480      11.44130082      -0.76044199
H        6.92105604       4.84380043      -2.08302239
H        8.75067829       3.28504022      -1.55619913
H       10.09311198       6.65805522       4.15382621
H        8.27553952       8.24731746       3.67827605
H       11.84840960       2.87692888       1.96553173
