80
Dimer: struct; Energy: -4906.06228 eV
C       -1.29972200       1.48833600      -0.03228100
C       -0.45010500       2.63965400       0.01843500
C        0.99654200       2.45238200       0.05441800
C       -0.76903400       0.15867800      -0.04877100
C        0.67752200      -0.02870400      -0.01297900
C        1.52709100       1.12265000       0.03785500
C        2.93347700       0.94084900       0.07277000
C        3.48023700      -0.37253000       0.05696900
C        3.79427800       2.07240500       0.12351100
C        5.26507800       1.88272800       0.16006300
C        1.24802600      -1.29258500      -0.02698300
C        2.64560500      -1.46904700       0.00777700
C        1.86805800       3.52983300       0.10418700
C        3.26457400       3.34539700       0.13880400
C        4.95087500      -0.56291500       0.09346700
N        5.75909100       0.57580800       0.14293500
O        6.06925500       2.83065500       0.20492200
O        5.48910000      -1.68427500       0.08194900
C       -1.02041300       3.90352800       0.03216900
C       -2.41794600       4.08003500      -0.00262400
C       -2.70602800       1.67000700      -0.06716000
C       -3.25245200       2.98347100      -0.05156500
C       -3.56691500       0.53850500      -0.11766500
C       -3.03687800      -0.73433100      -0.13279200
C       -1.64041100      -0.91883000      -0.09829200
C       -4.72314700       3.17392200      -0.08803700
C       -5.03773600       0.72818300      -0.15412500
N       -5.53143900       2.03522700      -0.13722100
O       -5.26133100       4.29529300      -0.07673500
O       -5.84203300      -0.21964700      -0.19870900
H        0.62972700      -2.20233100      -0.06573200
H        3.07286500      -2.48716200      -0.00439800
H        1.49989900       4.56697900       0.11841200
H        3.93550500       4.22152900       0.17822500
H        6.75033500       0.44779700       0.16755800
H       -0.40199700       4.81321100       0.07071000
H       -2.84532000       5.09816700       0.00933800
H       -3.70773700      -1.61056600      -0.17200800
H       -1.27202900      -1.95588300      -0.11238600
H       -6.52266300       2.16338500      -0.16179200
C        0.74014848       4.99421884       7.00547481
C        0.42721626       6.37271669       6.77794153
C        0.35038544       7.28001077       7.91814660
C        0.97981295       4.48165732       8.32066822
C        0.90319507       5.38884414       9.46086957
C        0.59014289       6.76731180       9.23328914
C        0.51546653       7.64954139      10.34157008
C        0.75051779       7.15939290      11.65635749
C        0.20565602       9.02274487      10.13589643
C        0.12743696       9.94567908      11.29461999
C        1.12584898       4.94883850      10.75697388
C        1.05078257       5.82836560      11.85532322
C        0.05120134       8.62458988       7.75841675
C       -0.02215855       9.49799938       8.86170551
C        0.67249435       8.08174232      12.81546859
N        0.36537421       9.42220275      12.56809575
O       -0.13882555      11.15533982      11.18014850
O        0.86744539       7.71423674      13.98773170
C        0.20481797       6.81290417       5.48195106
C        0.27990577       5.93344606       4.38359819
C        0.81480990       4.11195297       5.89734572
C        0.57992664       4.60243514       4.58270997
C        1.12438337       2.73868416       6.10294485
C        1.35198793       2.26374609       7.37727193
C        1.27875728       3.13709769       8.48055996
C        0.65791513       3.68008486       3.42351485
C        1.20251316       1.81571997       4.94421523
N        0.96475556       2.33954063       3.67084346
O        0.46317160       4.04766388       2.25125067
O        1.46849407       0.60599185       5.05856185
H        1.36899743       3.89748160      10.97367740
H        1.23273710       5.45085294      12.87690740
H       -0.13951234       9.05706555       6.76443068
H       -0.26240337      10.56439840       8.70554772
H        0.31270330      10.04409479      13.34914238
H       -0.03812084       7.86433787       5.26535279
H        0.09816293       6.31092431       3.36190151
H        1.59204742       1.19729465       7.53357369
H        1.46931305       2.70482284       9.47464739
H        1.01734659       1.71775330       2.88971100
