80
Dimer: struct; Energy: -4906.06228 eV
C       -1.29972200       1.48833600      -0.03228100
C       -0.45010500       2.63965400       0.01843500
C        0.99654200       2.45238200       0.05441800
C       -0.76903400       0.15867800      -0.04877100
C        0.67752200      -0.02870400      -0.01297900
C        1.52709100       1.12265000       0.03785500
C        2.93347700       0.94084900       0.07277000
C        3.48023700      -0.37253000       0.05696900
C        3.79427800       2.07240500       0.12351100
C        5.26507800       1.88272800       0.16006300
C        1.24802600      -1.29258500      -0.02698300
C        2.64560500      -1.46904700       0.00777700
C        1.86805800       3.52983300       0.10418700
C        3.26457400       3.34539700       0.13880400
C        4.95087500      -0.56291500       0.09346700
N        5.75909100       0.57580800       0.14293500
O        6.06925500       2.83065500       0.20492200
O        5.48910000      -1.68427500       0.08194900
C       -1.02041300       3.90352800       0.03216900
C       -2.41794600       4.08003500      -0.00262400
C       -2.70602800       1.67000700      -0.06716000
C       -3.25245200       2.98347100      -0.05156500
C       -3.56691500       0.53850500      -0.11766500
C       -3.03687800      -0.73433100      -0.13279200
C       -1.64041100      -0.91883000      -0.09829200
C       -4.72314700       3.17392200      -0.08803700
C       -5.03773600       0.72818300      -0.15412500
N       -5.53143900       2.03522700      -0.13722100
O       -5.26133100       4.29529300      -0.07673500
O       -5.84203300      -0.21964700      -0.19870900
H        0.62972700      -2.20233100      -0.06573200
H        3.07286500      -2.48716200      -0.00439800
H        1.49989900       4.56697900       0.11841200
H        3.93550500       4.22152900       0.17822500
H        6.75033500       0.44779700       0.16755800
H       -0.40199700       4.81321100       0.07071000
H       -2.84532000       5.09816700       0.00933800
H       -3.70773700      -1.61056600      -0.17200800
H       -1.27202900      -1.95588300      -0.11238600
H       -6.52266300       2.16338500      -0.16179200
C        9.86897805       1.73334429       0.52578597
C        9.67286138       0.32045359       0.64920563
C        9.68561664      -0.28391345       1.97726094
C       10.07709666       2.56931571       1.66934642
C       10.08968823       1.96512188       2.99739333
C        9.89368270       0.55220518       3.12074592
C        9.90596980      -0.03554640       4.41171042
C       10.11112756       0.77833625       5.56047754
C        9.71308134      -1.43777936       4.55491922
C        9.72588524      -2.05283348       5.90477498
C       10.28654272       2.72499404       4.14059442
C       10.29804054       2.13740595       5.42129040
C        9.50133072      -1.64640416       2.15774784
C        9.51420097      -2.22675747       3.44168565
C       10.12401543       0.16396710       6.91056610
N        9.93063130      -1.21660383       7.00531172
O        9.56332858      -3.27124039       6.09540160
O       10.29829651       0.82127893       7.95211990
C        9.47573529      -0.43946694      -0.49380768
C        9.46419494       0.14806548      -1.77448572
C        9.85674712       2.32115626      -0.76504513
C        9.65135811       1.50706409      -1.91355693
C       10.04986078       3.72334705      -0.90837019
C       10.24886225       4.51199183       0.20505577
C       10.26163115       3.93173744       1.48899191
C        9.63848586       2.12140326      -3.26372999
C       10.03714787       4.33839493      -2.25825017
N        9.83214672       3.50193997      -3.35857288
O        9.46398900       1.46409926      -4.30524089
O       10.19996144       5.55673457      -2.44904682
H       10.44071678       3.81353380       4.08820674
H       10.45701370       2.76652215       6.31470958
H        9.33852649      -2.32258281       1.30469893
H        9.36480892      -3.31480419       3.55634185
H        9.93928241      -1.63096798       7.91513879
H        9.32136396      -1.52797816      -0.44127443
H        9.30501397      -0.48096762      -2.66799744
H       10.39847177       5.60005054       0.09050145
H       10.42453807       4.60769892       2.34217435
H        9.82351877       3.91616176      -4.26846248
