40
struct; Energy: -4906.06228 eV
C	-1.299722	1.488336	-0.032281
C	-0.450105	2.639654	0.018435
C	0.996542	2.452382	0.054418
C	-0.769034	0.158678	-0.048771
C	0.677522	-0.028704	-0.012979
C	1.527091	1.122650	0.037855
C	2.933477	0.940849	0.072770
C	3.480237	-0.372530	0.056969
C	3.794278	2.072405	0.123511
C	5.265078	1.882728	0.160063
C	1.248026	-1.292585	-0.026983
C	2.645605	-1.469047	0.007777
C	1.868058	3.529833	0.104187
C	3.264574	3.345397	0.138804
C	4.950875	-0.562915	0.093467
N	5.759091	0.575808	0.142935
O	6.069255	2.830655	0.204922
O	5.489100	-1.684275	0.081949
C	-1.020413	3.903528	0.032169
C	-2.417946	4.080035	-0.002624
C	-2.706028	1.670007	-0.067160
C	-3.252452	2.983471	-0.051565
C	-3.566915	0.538505	-0.117665
C	-3.036878	-0.734331	-0.132792
C	-1.640411	-0.918830	-0.098292
C	-4.723147	3.173922	-0.088037
C	-5.037736	0.728183	-0.154125
N	-5.531439	2.035227	-0.137221
O	-5.261331	4.295293	-0.076735
O	-5.842033	-0.219647	-0.198709
H	0.629727	-2.202331	-0.065732
H	3.072865	-2.487162	-0.004398
H	1.499899	4.566979	0.118412
H	3.935505	4.221529	0.178225
H	6.750335	0.447797	0.167558
H	-0.401997	4.813211	0.070710
H	-2.845320	5.098167	0.009338
H	-3.707737	-1.610566	-0.172008
H	-1.272029	-1.955883	-0.112386
H	-6.522663	2.163385	-0.161792
